
Actelion Java MolfileCreator 2.0

  0  0  0  0  0  0              0 V3000
M  V30 BEGIN CTAB
M  V30 COUNTS 17 18 0 0 0
M  V30 BEGIN ATOM
M  V30 1 S 2.598 -0.75 0.0 0
M  V30 2 O 1.848 -2.049 0.0 0
M  V30 3 O 3.348 -2.049 0.0 0
M  V30 4 N 1.299 0.0 0.0 0
M  V30 5 C 3.8971 0.0 0.0 0
M  V30 6 C 0.0 -0.75 0.0 0
M  V30 7 C 5.1961 -0.75 0.0 0
M  V30 8 C 3.8971 1.5 0.0 0
M  V30 9 N -1.299 0.0 0.0 0
M  V30 10 C 0.0 -2.25 0.0 0
M  V30 11 C 6.4952 0.0 0.0 0
M  V30 12 C 5.1961 2.25 0.0 0
M  V30 13 C -2.598 -0.75 0.0 0
M  V30 14 C -1.299 -3.0 0.0 0
M  V30 15 C 6.4952 1.5 0.0 0
M  V30 16 C -2.598 -2.25 0.0 0
M  V30 17 N 7.7942 2.25 0.0 0
M  V30 END ATOM
M  V30 BEGIN BOND
M  V30 1 2 1 2
M  V30 2 2 1 3
M  V30 3 1 1 4
M  V30 4 1 1 5
M  V30 5 1 4 6
M  V30 6 2 5 7
M  V30 7 1 5 8
M  V30 8 2 6 9
M  V30 9 1 6 10
M  V30 10 1 7 11
M  V30 11 2 8 12
M  V30 12 1 9 13
M  V30 13 2 10 14
M  V30 14 2 11 15
M  V30 15 2 13 16
M  V30 16 1 15 17
M  V30 17 1 12 15
M  V30 18 1 14 16
M  V30 END BOND
M  V30 END CTAB
M  END
>  <Molecule Name>


>  <status>
DISCONTINUED

>  <cas>
144-83-2

>  <name>
SULFAPYRIDINE

>  <ID>
1

>  <Smiles>
Nc(cc1)ccc1S(Nc1ncccc1)(=O)=O

$$$$

Actelion Java MolfileCreator 2.0

  0  0  0  0  0  0              0 V3000
M  V30 BEGIN CTAB
M  V30 COUNTS 95 102 0 0 0
M  V30 BEGIN ATOM
M  V30 1 O 24.872 2.1159 0.0 0
M  V30 2 C 24.4653 1.2024 0.0 0
M  V30 3 N 23.4872 0.9945 0.0 0
M  V30 4 C 24.9653 0.3364 0.0 0
M  V30 5 C 23.3826 0.0 0.0 0 CFG=1
M  V30 6 C 24.2962 -0.4067 0.0 0
M  V30 7 C 22.5166 -0.5 0.0 0
M  V30 8 O 22.5166 -1.4999 0.0 0
M  V30 9 N 21.6506 0.0 0.0 0
M  V30 10 C 20.7846 -0.5 0.0 0 CFG=2
M  V30 11 C 19.9185 0.0 0.0 0
M  V30 12 C 20.7846 -1.5 0.0 0
M  V30 13 O 19.9185 0.9999 0.0 0
M  V30 14 N 19.0525 -0.5 0.0 0
M  V30 15 C 19.9185 -2.0 0.0 0
M  V30 16 C 18.1865 0.0 0.0 0 CFG=2
M  V30 17 N 19.814 -2.9945 0.0 0
M  V30 18 C 19.005 -1.5932 0.0 0
M  V30 19 C 17.3205 -0.5 0.0 0
M  V30 20 C 18.1865 1.0 0.0 0
M  V30 21 C 18.8359 -3.2024 0.0 0
M  V30 22 N 18.3359 -2.3364 0.0 0
M  V30 23 O 17.3205 -1.4999 0.0 0
M  V30 24 N 16.4544 0.0 0.0 0
M  V30 25 C 17.3205 1.5 0.0 0
M  V30 26 C 15.5884 -0.5 0.0 0 CFG=2
M  V30 27 C 17.2159 2.4945 0.0 0
M  V30 28 C 16.4069 1.0932 0.0 0
M  V30 29 C 14.7224 0.0 0.0 0
M  V30 30 C 15.5884 -1.4999 0.0 0
M  V30 31 C 16.2378 2.7024 0.0 0
M  V30 32 C 17.8851 3.2376 0.0 0
M  V30 33 N 15.7378 1.8364 0.0 0
M  V30 34 O 14.7224 1.0 0.0 0
M  V30 35 N 13.8564 -0.5 0.0 0
M  V30 36 O 16.4544 -2.0 0.0 0
M  V30 37 C 15.9288 3.6534 0.0 0
M  V30 38 C 17.576 4.1887 0.0 0
M  V30 39 C 12.9903 0.0 0.0 0 CFG=2
M  V30 40 C 16.5979 4.3966 0.0 0
M  V30 41 C 12.1243 -0.5 0.0 0
M  V30 42 C 12.9903 0.9999 0.0 0
M  V30 43 O 12.1243 -1.5 0.0 0
M  V30 44 N 11.2583 0.0 0.0 0
M  V30 45 C 12.1243 1.4999 0.0 0
M  V30 46 C 10.3923 -0.5 0.0 0 CFG=1
M  V30 47 C 12.1243 2.4999 0.0 0
M  V30 48 C 11.2583 0.9999 0.0 0
M  V30 49 C 9.5262 0.0 0.0 0
M  V30 50 C 10.3923 -1.4999 0.0 0
M  V30 51 C 11.2583 2.9999 0.0 0
M  V30 52 C 10.3923 1.4999 0.0 0
M  V30 53 O 9.5262 1.0 0.0 0
M  V30 54 N 8.6602 -0.5 0.0 0
M  V30 55 C 9.5262 -1.9999 0.0 0
M  V30 56 C 10.3923 2.4999 0.0 0
M  V30 57 C 7.7942 0.0 0.0 0 CFG=2
M  V30 58 C 9.4217 -2.9945 0.0 0
M  V30 59 C 8.6127 -1.5932 0.0 0
M  V30 60 O 9.5262 2.9999 0.0 0
M  V30 61 C 6.9282 -0.5 0.0 0
M  V30 62 C 7.7942 0.9999 0.0 0
M  V30 63 C 8.4436 -3.2024 0.0 0
M  V30 64 C 10.0908 -3.7376 0.0 0
M  V30 65 N 7.9436 -2.3364 0.0 0
M  V30 66 O 6.0621 0.0 0.0 0
M  V30 67 N 6.9282 -1.4999 0.0 0
M  V30 68 C 6.9282 1.4999 0.0 0
M  V30 69 C 8.1345 -4.1534 0.0 0
M  V30 70 C 9.7818 -4.6887 0.0 0
M  V30 71 C 6.0621 -2.0 0.0 0 CFG=2
M  V30 72 C 6.0621 0.9999 0.0 0
M  V30 73 C 6.9282 2.4999 0.0 0
M  V30 74 C 8.8037 -4.8966 0.0 0
M  V30 75 C 5.1961 -1.5 0.0 0
M  V30 76 C 6.0621 -3.0 0.0 0
M  V30 77 O 5.1961 -0.5 0.0 0
M  V30 78 N 4.3301 -2.0 0.0 0
M  V30 79 C 5.1961 -3.5 0.0 0
M  V30 80 C 3.4165 -1.5932 0.0 0 CFG=2
M  V30 81 C 4.2255 -2.9945 0.0 0
M  V30 82 C 5.1961 -4.5 0.0 0
M  V30 83 C 3.2086 -0.6151 0.0 0
M  V30 84 C 2.7474 -2.3364 0.0 0
M  V30 85 C 3.2474 -3.2024 0.0 0
M  V30 86 N 6.0621 -4.9999 0.0 0
M  V30 87 O 3.9518 0.054 0.0 0
M  V30 88 N 2.2576 -0.306 0.0 0
M  V30 89 C 6.0621 -5.9999 0.0 0
M  V30 90 C 1.5144 -0.9752 0.0 0
M  V30 91 N 5.1961 -6.5 0.0 0 CHG=1
M  V30 92 N 6.9282 -6.4999 0.0 0
M  V30 93 C 0.5634 -0.6662 0.0 0
M  V30 94 O 0.3555 0.3119 0.0 0
M  V30 95 N -0.1797 -1.3353 0.0 0
M  V30 END ATOM
M  V30 BEGIN BOND
M  V30 1 2 1 2
M  V30 2 1 2 3
M  V30 3 1 2 4
M  V30 4 1 5 3
M  V30 5 1 4 6
M  V30 6 1 5 7 CFG=1
M  V30 7 2 7 8
M  V30 8 1 7 9
M  V30 9 1 10 9 CFG=1
M  V30 10 1 10 11
M  V30 11 1 10 12
M  V30 12 2 11 13
M  V30 13 1 11 14
M  V30 14 1 12 15
M  V30 15 1 16 14 CFG=3
M  V30 16 1 15 17
M  V30 17 2 15 18
M  V30 18 1 16 19
M  V30 19 1 16 20
M  V30 20 2 17 21
M  V30 21 1 18 22
M  V30 22 2 19 23
M  V30 23 1 19 24
M  V30 24 1 20 25
M  V30 25 1 26 24 CFG=1
M  V30 26 1 25 27
M  V30 27 2 25 28
M  V30 28 1 26 29
M  V30 29 1 26 30
M  V30 30 2 27 31
M  V30 31 1 27 32
M  V30 32 1 28 33
M  V30 33 2 29 34
M  V30 34 1 29 35
M  V30 35 1 30 36
M  V30 36 1 31 37
M  V30 37 2 32 38
M  V30 38 1 39 35 CFG=3
M  V30 39 2 37 40
M  V30 40 1 39 41
M  V30 41 1 39 42
M  V30 42 2 41 43
M  V30 43 1 41 44
M  V30 44 1 42 45
M  V30 45 1 46 44 CFG=3
M  V30 46 2 45 47
M  V30 47 1 45 48
M  V30 48 1 46 49
M  V30 49 1 46 50
M  V30 50 1 47 51
M  V30 51 2 48 52
M  V30 52 2 49 53
M  V30 53 1 49 54
M  V30 54 1 50 55
M  V30 55 2 51 56
M  V30 56 1 57 54 CFG=3
M  V30 57 1 55 58
M  V30 58 2 55 59
M  V30 59 1 56 60
M  V30 60 1 57 61
M  V30 61 1 57 62
M  V30 62 2 58 63
M  V30 63 1 58 64
M  V30 64 1 59 65
M  V30 65 2 61 66
M  V30 66 1 61 67
M  V30 67 1 62 68
M  V30 68 1 63 69
M  V30 69 2 64 70
M  V30 70 1 71 67 CFG=1
M  V30 71 1 68 72
M  V30 72 1 68 73
M  V30 73 2 69 74
M  V30 74 1 71 75
M  V30 75 1 71 76
M  V30 76 2 75 77
M  V30 77 1 75 78
M  V30 78 1 76 79
M  V30 79 1 80 78
M  V30 80 1 78 81
M  V30 81 1 79 82
M  V30 82 1 80 83 CFG=1
M  V30 83 1 80 84
M  V30 84 1 81 85
M  V30 85 1 82 86
M  V30 86 2 83 87
M  V30 87 1 83 88
M  V30 88 1 86 89
M  V30 89 1 88 90
M  V30 90 2 89 91
M  V30 91 1 89 92
M  V30 92 1 90 93
M  V30 93 2 93 94
M  V30 94 1 93 95
M  V30 95 1 5 6
M  V30 96 1 21 22
M  V30 97 1 31 33
M  V30 98 1 38 40
M  V30 99 1 52 56
M  V30 100 1 63 65
M  V30 101 1 70 74
M  V30 102 1 84 85
M  V30 END BOND
M  V30 BEGIN COLLECTION
M  V30 MDLV30/STERAC1 ATOMS=(9 5 10 16 26 39 46 57 71 80)
M  V30 END COLLECTION
M  V30 END CTAB
M  END
>  <Molecule Name>


>  <status>
-

>  <cas>
57773-63-4

>  <name>
TRIPTORELIN

>  <ID>
2

>  <Smiles>
CC(C)C[C@@H](C(N[C@@H](CCCNC(N)=[NH2+])C(N(CCC1)[C@@H]1C(NCC(N)=O)=O)=O)=O)NC([C@@H](Cc1c[nH]c2c1cccc2)NC([C@H](Cc(cc1)ccc1O)NC([C@H](CO)NC([C@H](Cc1c[nH]c2c1cccc2)NC([C@H](Cc1c[nH]cn1)NC([C@H](CC1)NC1=O)=O)=O)=O)=O)=O)=O

$$$$

Actelion Java MolfileCreator 2.0

  0  0  0  0  0  0              0 V3000
M  V30 BEGIN CTAB
M  V30 COUNTS 8 8 0 0 0
M  V30 BEGIN ATOM
M  V30 1 N 4.1807 0.3364 0.0 0
M  V30 2 C 3.6807 1.2024 0.0 0
M  V30 3 C 3.5116 -0.4067 0.0 0
M  V30 4 N 2.7026 0.9945 0.0 0
M  V30 5 C 2.598 0.0 0.0 0
M  V30 6 C 1.732 -0.5 0.0 0
M  V30 7 C 0.866 0.0 0.0 0
M  V30 8 N 0.0 -0.5 0.0 0
M  V30 END ATOM
M  V30 BEGIN BOND
M  V30 1 2 1 2
M  V30 2 1 1 3
M  V30 3 1 2 4
M  V30 4 2 3 5
M  V30 5 1 5 6
M  V30 6 1 6 7
M  V30 7 1 7 8
M  V30 8 1 4 5
M  V30 END BOND
M  V30 END CTAB
M  END
>  <Molecule Name>


>  <status>
DISCONTINUED

>  <cas>
51-45-6

>  <name>
HISTAMINE

>  <ID>
3

>  <Smiles>
NCCc1cnc[nH]1

$$$$

Actelion Java MolfileCreator 2.0

  0  0  0  0  0  0              0 V3000
M  V30 BEGIN CTAB
M  V30 COUNTS 15 15 0 0 0
M  V30 BEGIN ATOM
M  V30 1 O 6.5204 -4.5175 0.0 0
M  V30 2 C 5.2163 -3.7646 0.0 0
M  V30 3 N 5.2163 -2.2587 0.0 0
M  V30 4 N 3.9122 -4.5175 0.0 0
M  V30 5 C 3.9122 -1.5058 0.0 0
M  V30 6 C 2.6081 -3.7646 0.0 0
M  V30 7 O 4.0628 -0.3011 0.0 0
M  V30 8 C 2.6081 -2.2587 0.0 0
M  V30 9 O 1.304 -4.5175 0.0 0
M  V30 10 C 2.6081 -0.7529 0.0 0 CFG=2
M  V30 11 C 1.304 -1.5058 0.0 0
M  V30 12 C 3.8192 0.1861 0.0 0
M  V30 13 C 1.304 0.0 0.0 0
M  V30 14 C 0.0 -2.2587 0.0 0
M  V30 15 C 5.2163 -0.7529 0.0 0
M  V30 END ATOM
M  V30 BEGIN BOND
M  V30 1 2 1 2
M  V30 2 1 2 3
M  V30 3 1 2 4
M  V30 4 1 3 5
M  V30 5 1 4 6
M  V30 6 2 5 7
M  V30 7 1 5 8
M  V30 8 2 6 9
M  V30 9 1 10 8
M  V30 10 1 8 11
M  V30 11 1 10 12
M  V30 12 1 10 13 CFG=1
M  V30 13 1 11 14
M  V30 14 1 12 15
M  V30 15 1 6 8
M  V30 END BOND
M  V30 BEGIN COLLECTION
M  V30 MDLV30/STERAC1 ATOMS=(1 10)
M  V30 END COLLECTION
M  V30 END CTAB
M  END
>  <Molecule Name>


>  <status>
DISCONTINUED

>  <cas>
125-40-6

>  <name>
BUTABARBITAL

>  <ID>
4

>  <Smiles>
CCC(C)C(CC)(C(NC(N1)=O)=O)C1=O

$$$$

Actelion Java MolfileCreator 2.0

  0  0  0  0  0  0              0 V3000
M  V30 BEGIN CTAB
M  V30 COUNTS 27 30 0 0 0
M  V30 BEGIN ATOM
M  V30 1 O 9.4331 10.0512 0.0 0
M  V30 2 C 8.9696 8.6247 0.0 0
M  V30 3 C 9.9733 7.5099 0.0 0
M  V30 4 C 7.5023 8.3128 0.0 0
M  V30 5 C 9.5097 6.0834 0.0 0
M  V30 6 C 7.0388 6.8862 0.0 0
M  V30 7 C 8.0425 5.7715 0.0 0 CFG=1
M  V30 8 C 10.5134 4.9686 0.0 0
M  V30 9 C 7.579 4.3449 0.0 0 CFG=1
M  V30 10 C 6.5753 5.4596 0.0 0
M  V30 11 C 10.0499 3.5421 0.0 0
M  V30 12 C 8.5827 3.2302 0.0 0 CFG=2
M  V30 13 C 6.1118 4.033 0.0 0
M  V30 14 C 8.1192 1.8036 0.0 0 CFG=2
M  V30 15 C 5.6482 2.6065 0.0 0
M  V30 16 C 6.6519 1.4917 0.0 0 CFG=1
M  V30 17 C 8.8692 0.5046 0.0 0
M  V30 18 C 6.4951 0.0 0.0 0 CFG=1
M  V30 19 C 5.2253 1.0282 0.0 0
M  V30 20 C 7.8655 -0.6101 0.0 0
M  V30 21 C 5.1961 -0.75 0.0 0
M  V30 22 O 5.1961 -2.25 0.0 0
M  V30 23 C 3.8971 0.0 0.0 0
M  V30 24 O 2.598 -0.75 0.0 0
M  V30 25 C 1.299 0.0 0.0 0
M  V30 26 O 1.299 1.5 0.0 0
M  V30 27 C 0.0 -0.75 0.0 0
M  V30 END ATOM
M  V30 BEGIN BOND
M  V30 1 2 1 2
M  V30 2 1 2 3
M  V30 3 1 2 4
M  V30 4 2 3 5
M  V30 5 1 4 6
M  V30 6 1 7 5
M  V30 7 1 5 8
M  V30 8 1 9 7
M  V30 9 1 7 10 CFG=1
M  V30 10 1 8 11
M  V30 11 1 12 9
M  V30 12 1 9 13 CFG=1
M  V30 13 1 14 12
M  V30 14 1 13 15
M  V30 15 1 16 14
M  V30 16 1 14 17 CFG=1
M  V30 17 1 18 16
M  V30 18 1 16 19 CFG=1
M  V30 19 1 17 20
M  V30 20 1 18 21 CFG=1
M  V30 21 2 21 22
M  V30 22 1 21 23
M  V30 23 1 23 24
M  V30 24 1 24 25
M  V30 25 2 25 26
M  V30 26 1 25 27
M  V30 27 1 6 7
M  V30 28 1 12 11 CFG=3
M  V30 29 1 15 16
M  V30 30 1 18 20
M  V30 END BOND
M  V30 BEGIN COLLECTION
M  V30 MDLV30/STERAC1 ATOMS=(6 7 9 12 14 16 18)
M  V30 END COLLECTION
M  V30 END CTAB
M  END
>  <Molecule Name>


>  <status>
DISCONTINUED

>  <cas>
56-47-3

>  <name>
DESOXYCORTICOSTERONE ACETATE

>  <ID>
5

>  <Smiles>
C[C@@](CC1)([C@H](CC2)[C@@H](CC3)[C@@H]1[C@](C)(CC1)C3=CC1=O)[C@@H]2C(COC(C)=O)=O

$$$$

Actelion Java MolfileCreator 2.0

  0  0  0  0  0  0              0 V3000
M  V30 BEGIN CTAB
M  V30 COUNTS 30 33 0 0 0
M  V30 BEGIN ATOM
M  V30 1 O 9.4331 10.0512 0.0 0
M  V30 2 C 8.9696 8.6247 0.0 0
M  V30 3 C 9.9733 7.5099 0.0 0
M  V30 4 C 7.5023 8.3128 0.0 0
M  V30 5 C 9.5097 6.0834 0.0 0
M  V30 6 C 7.0388 6.8862 0.0 0
M  V30 7 C 8.0425 5.7715 0.0 0 CFG=1
M  V30 8 C 10.5134 4.9686 0.0 0
M  V30 9 C 7.579 4.3449 0.0 0 CFG=1
M  V30 10 C 6.5753 5.4596 0.0 0
M  V30 11 C 10.0499 3.5421 0.0 0
M  V30 12 C 8.5827 3.2302 0.0 0 CFG=2
M  V30 13 C 6.1118 4.033 0.0 0
M  V30 14 C 8.1192 1.8036 0.0 0 CFG=2
M  V30 15 C 5.6482 2.6065 0.0 0
M  V30 16 C 6.6519 1.4917 0.0 0 CFG=1
M  V30 17 C 8.8692 0.5046 0.0 0
M  V30 18 C 6.4951 0.0 0.0 0 CFG=1
M  V30 19 C 5.2253 1.0282 0.0 0
M  V30 20 C 7.8655 -0.6101 0.0 0
M  V30 21 C 5.1961 -0.75 0.0 0
M  V30 22 O 5.1961 -2.25 0.0 0
M  V30 23 C 3.8971 0.0 0.0 0
M  V30 24 O 2.598 -0.75 0.0 0
M  V30 25 C 1.299 0.0 0.0 0
M  V30 26 O 1.299 1.5 0.0 0
M  V30 27 C 0.0 -0.75 0.0 0
M  V30 28 C 0.7499 -2.049 0.0 0
M  V30 29 C -1.299 -1.4999 0.0 0
M  V30 30 C -0.7499 0.549 0.0 0
M  V30 END ATOM
M  V30 BEGIN BOND
M  V30 1 2 1 2
M  V30 2 1 2 3
M  V30 3 1 2 4
M  V30 4 2 3 5
M  V30 5 1 4 6
M  V30 6 1 7 5
M  V30 7 1 5 8
M  V30 8 1 9 7
M  V30 9 1 7 10 CFG=1
M  V30 10 1 8 11
M  V30 11 1 12 9
M  V30 12 1 9 13 CFG=1
M  V30 13 1 14 12
M  V30 14 1 13 15
M  V30 15 1 16 14
M  V30 16 1 14 17 CFG=1
M  V30 17 1 18 16
M  V30 18 1 16 19 CFG=1
M  V30 19 1 17 20
M  V30 20 1 18 21 CFG=1
M  V30 21 2 21 22
M  V30 22 1 21 23
M  V30 23 1 23 24
M  V30 24 1 24 25
M  V30 25 2 25 26
M  V30 26 1 25 27
M  V30 27 1 27 28
M  V30 28 1 27 29
M  V30 29 1 27 30
M  V30 30 1 6 7
M  V30 31 1 12 11 CFG=3
M  V30 32 1 15 16
M  V30 33 1 18 20
M  V30 END BOND
M  V30 BEGIN COLLECTION
M  V30 MDLV30/STERAC1 ATOMS=(6 7 9 12 14 16 18)
M  V30 END COLLECTION
M  V30 END CTAB
M  END
>  <Molecule Name>


>  <status>
DISCONTINUED

>  <cas>
808-48-0

>  <name>
DESOXYCORTICOSTERONE PIVALATE

>  <ID>
6

>  <Smiles>
CC(C)(C)C(OCC([C@H](CC1)[C@](C)(CC2)[C@H]1[C@@H](CC1)[C@@H]2[C@](C)(CC2)C1=CC2=O)=O)=O

$$$$

Actelion Java MolfileCreator 2.0

  0  0  0  0  0  0              0 V3000
M  V30 BEGIN CTAB
M  V30 COUNTS 4 3 0 0 0
M  V30 BEGIN ATOM
M  V30 1 N 1.732 -0.5 0.0 0 CHG=1
M  V30 2 C 0.866 0.0 0.0 0
M  V30 3 N 0.866 1.0 0.0 0
M  V30 4 N 0.0 -0.5 0.0 0
M  V30 END ATOM
M  V30 BEGIN BOND
M  V30 1 2 1 2
M  V30 2 1 2 3
M  V30 3 1 2 4
M  V30 END BOND
M  V30 END CTAB
M  END
>  <Molecule Name>


>  <status>
DISCONTINUED

>  <cas>
113-00-8

>  <name>
GUANIDINE

>  <ID>
7

>  <Smiles>
NC(N)=[NH2+]

$$$$

Actelion Java MolfileCreator 2.0

  0  0  0  0  0  0              0 V3000
M  V30 BEGIN CTAB
M  V30 COUNTS 13 14 0 0 0
M  V30 BEGIN ATOM
M  V30 1 O 1.299 0.0 0.0 0
M  V30 2 C 0.0 -0.75 0.0 0
M  V30 3 C -1.299 0.0 0.0 0
M  V30 4 C 0.0 -2.2499 0.0 0
M  V30 5 C -2.598 -0.7499 0.0 0
M  V30 6 C -1.299 1.5 0.0 0
M  V30 7 C -1.299 -2.9999 0.0 0
M  V30 8 C 1.299 -3.0 0.0 0
M  V30 9 C -2.598 -2.2499 0.0 0
M  V30 10 C -3.8971 0.0 0.0 0
M  V30 11 C -2.598 2.25 0.0 0
M  V30 12 O -3.8971 -2.9999 0.0 0
M  V30 13 C -3.8971 1.5 0.0 0
M  V30 END ATOM
M  V30 BEGIN BOND
M  V30 1 2 1 2
M  V30 2 1 2 3
M  V30 3 1 2 4
M  V30 4 2 3 5
M  V30 5 1 3 6
M  V30 6 2 4 7
M  V30 7 1 4 8
M  V30 8 1 5 9
M  V30 9 1 5 10
M  V30 10 2 6 11
M  V30 11 2 9 12
M  V30 12 2 10 13
M  V30 13 1 7 9
M  V30 14 1 11 13
M  V30 END BOND
M  V30 END CTAB
M  END
>  <Molecule Name>


>  <status>
DISCONTINUED

>  <cas>
58-27-5

>  <name>
MENADIONE

>  <ID>
8

>  <Smiles>
CC(C(c1c2cccc1)=O)=CC2=O

$$$$

Actelion Java MolfileCreator 2.0

  0  0  0  0  0  0              0 V3000
M  V30 BEGIN CTAB
M  V30 COUNTS 13 14 0 0 0
M  V30 BEGIN ATOM
M  V30 1 O 0.866 0.0 0.0 0
M  V30 2 C 0.0 -0.5 0.0 0
M  V30 3 N -0.866 0.0 0.0 0
M  V30 4 N 0.0 -1.4999 0.0 0
M  V30 5 C -1.732 -0.4999 0.0 0
M  V30 6 C -0.866 1.0 0.0 0
M  V30 7 C -0.866 -1.9999 0.0 0
M  V30 8 C 0.866 -1.9999 0.0 0
M  V30 9 O -2.598 0.0 0.0 0
M  V30 10 C -1.732 -1.4999 0.0 0
M  V30 11 N -1.0739 -2.9781 0.0 0
M  V30 12 N -2.4751 -2.1691 0.0 0
M  V30 13 C -2.0684 -3.0826 0.0 0
M  V30 END ATOM
M  V30 BEGIN BOND
M  V30 1 2 1 2
M  V30 2 1 2 3
M  V30 3 1 2 4
M  V30 4 1 3 5
M  V30 5 1 3 6
M  V30 6 1 4 7
M  V30 7 1 4 8
M  V30 8 2 5 9
M  V30 9 1 5 10
M  V30 10 1 7 11
M  V30 11 1 10 12
M  V30 12 2 11 13
M  V30 13 2 7 10
M  V30 14 1 12 13
M  V30 END BOND
M  V30 END CTAB
M  END
>  <Molecule Name>


>  <status>
-

>  <cas>
58-55-9

>  <name>
THEOPHYLLINE

>  <ID>
9

>  <Smiles>
CN(c1c(C(N2C)=O)[nH]cn1)C2=O

$$$$

Actelion Java MolfileCreator 2.0

  0  0  0  0  0  0              0 V3000
M  V30 BEGIN CTAB
M  V30 COUNTS 29 31 0 0 0
M  V30 BEGIN ATOM
M  V30 1 O 12.6988 -2.2341 0.0 0
M  V30 2 C 11.7206 -2.4421 0.0 0 CFG=1
M  V30 3 C 11.0515 -1.6989 0.0 0
M  V30 4 C 11.4116 -3.3931 0.0 0
M  V30 5 C 10.0733 -1.9068 0.0 0
M  V30 6 C 10.4334 -3.601 0.0 0
M  V30 7 C 9.7643 -2.8579 0.0 0
M  V30 8 C 9.4042 -1.1637 0.0 0
M  V30 9 C 8.7862 -3.0658 0.0 0
M  V30 10 C 8.4261 -1.3716 0.0 0
M  V30 11 C 7.7569 -0.6284 0.0 0
M  V30 12 C 6.7788 -0.8364 0.0 0 CFG=2
M  V30 13 C 8.0659 0.3225 0.0 0
M  V30 14 C 6.1096 -0.0932 0.0 0 CFG=2
M  V30 15 C 6.2788 -1.7024 0.0 0
M  V30 16 C 7.3968 1.0657 0.0 0
M  V30 17 C 5.1961 -0.5 0.0 0 CFG=1
M  V30 18 C 6.4187 0.8577 0.0 0
M  V30 19 C 5.3665 0.5758 0.0 0
M  V30 20 C 5.3006 -1.4945 0.0 0
M  V30 21 C 4.3301 0.0 0.0 0 CFG=2
M  V30 22 C 3.4641 -0.5 0.0 0
M  V30 23 C 4.3301 1.0 0.0 0
M  V30 24 C 2.598 0.0 0.0 0
M  V30 25 C 1.732 -0.5 0.0 0 CFG=2
M  V30 26 C 0.866 0.0 0.0 0
M  V30 27 C 1.732 -1.5 0.0 0
M  V30 28 C 0.866 1.0 0.0 0
M  V30 29 C 0.0 -0.5 0.0 0
M  V30 END ATOM
M  V30 BEGIN BOND
M  V30 1 1 2 1 CFG=3
M  V30 2 1 2 3
M  V30 3 1 2 4
M  V30 4 1 3 5
M  V30 5 1 4 6
M  V30 6 1 5 7
M  V30 7 2 5 8
M  V30 8 2 7 9
M  V30 9 1 8 10
M  V30 10 2 10 11
M  V30 11 1 12 11
M  V30 12 1 11 13
M  V30 13 1 14 12
M  V30 14 1 12 15 CFG=1
M  V30 15 1 13 16
M  V30 16 1 17 14
M  V30 17 1 14 18
M  V30 18 1 14 19 CFG=1
M  V30 19 1 15 20
M  V30 20 1 21 17
M  V30 21 1 21 22
M  V30 22 1 21 23 CFG=3
M  V30 23 2 22 24
M  V30 24 1 25 24
M  V30 25 1 25 26
M  V30 26 1 25 27 CFG=1
M  V30 27 1 26 28
M  V30 28 1 26 29
M  V30 29 1 6 7
M  V30 30 1 16 18
M  V30 31 1 17 20 CFG=1
M  V30 END BOND
M  V30 BEGIN COLLECTION
M  V30 MDLV30/STERAC1 ATOMS=(6 2 12 14 17 21 25)
M  V30 END COLLECTION
M  V30 END CTAB
M  END
>  <Molecule Name>


>  <status>
-

>  <cas>
50-14-6

>  <name>
ERGOCALCIFEROL

>  <ID>
10

>  <Smiles>
CC(C)[C@H](C)/C=C/[C@H](C)[C@H](CC1)[C@](C)(CCC2)[C@H]1/C2=C/C=C(/C[C@@H](CC1)O)\C1=C

$$$$

Actelion Java MolfileCreator 2.0

  0  0  0  0  0  0              0 V3000
M  V30 BEGIN CTAB
M  V30 COUNTS 20 23 0 0 0
M  V30 BEGIN ATOM
M  V30 1 O 1.299 0.0 0.0 0
M  V30 2 C 0.0 -0.75 0.0 0
M  V30 3 C -1.3703 -0.1398 0.0 0 CFG=2
M  V30 4 C -0.1567 -2.2417 0.0 0
M  V30 5 C -2.374 -1.2546 0.0 0 CFG=1
M  V30 6 C -1.8338 1.2866 0.0 0
M  V30 7 C -0.2556 0.8638 0.0 0
M  V30 8 C -1.624 -2.5536 0.0 0
M  V30 9 C -3.8412 -0.9427 0.0 0 CFG=1
M  V30 10 C -3.301 1.5985 0.0 0
M  V30 11 C -4.3047 0.4838 0.0 0 CFG=2
M  V30 12 C -4.8449 -2.0574 0.0 0
M  V30 13 C -5.7719 0.7957 0.0 0
M  V30 14 C -6.3121 -1.7455 0.0 0
M  V30 15 C -6.7756 -0.319 0.0 0
M  V30 16 C -6.2355 2.2222 0.0 0
M  V30 17 C -8.2428 -0.0071 0.0 0
M  V30 18 C -7.7027 2.5341 0.0 0
M  V30 19 C -8.7064 1.4194 0.0 0
M  V30 20 O -10.1736 1.7313 0.0 0
M  V30 END ATOM
M  V30 BEGIN BOND
M  V30 1 2 1 2
M  V30 2 1 3 2
M  V30 3 1 2 4
M  V30 4 1 5 3
M  V30 5 1 3 6
M  V30 6 1 3 7 CFG=1
M  V30 7 1 4 8
M  V30 8 1 9 5
M  V30 9 1 6 10
M  V30 10 1 11 9
M  V30 11 1 9 12 CFG=3
M  V30 12 1 11 13
M  V30 13 1 12 14
M  V30 14 2 13 15
M  V30 15 1 13 16
M  V30 16 1 15 17
M  V30 17 2 16 18
M  V30 18 2 17 19
M  V30 19 1 19 20
M  V30 20 1 5 8 CFG=1
M  V30 21 1 11 10 CFG=1
M  V30 22 1 14 15
M  V30 23 1 18 19
M  V30 END BOND
M  V30 BEGIN COLLECTION
M  V30 MDLV30/STERAC1 ATOMS=(4 3 5 9 11)
M  V30 END COLLECTION
M  V30 END CTAB
M  END
>  <Molecule Name>


>  <status>
DISCONTINUED

>  <cas>
53-16-7

>  <name>
ESTRONE

>  <ID>
11

>  <Smiles>
C[C@](CC1)([C@@H](CC2)[C@H](CC3)[C@H]1c(cc1)c3cc1O)C2=O

$$$$

Actelion Java MolfileCreator 2.0

  0  0  0  0  0  0              0 V3000
M  V30 BEGIN CTAB
M  V30 COUNTS 20 21 0 0 0
M  V30 BEGIN ATOM
M  V30 1 O 2.598 4.0 0.0 0
M  V30 2 C 2.598 3.0 0.0 0
M  V30 3 C 1.732 2.5 0.0 0
M  V30 4 C 3.4641 2.5 0.0 0
M  V30 5 C 1.732 1.4999 0.0 0
M  V30 6 C 3.4641 1.5 0.0 0
M  V30 7 C 2.598 1.0 0.0 0
M  V30 8 C 2.598 0.0 0.0 0
M  V30 9 C 1.732 -0.5 0.0 0
M  V30 10 C 3.4641 -0.5 0.0 0
M  V30 11 C 1.732 -1.5 0.0 0
M  V30 12 C 0.866 0.0 0.0 0
M  V30 13 C 4.3301 0.0 0.0 0
M  V30 14 C 0.866 -1.9999 0.0 0
M  V30 15 C 2.598 -2.0 0.0 0
M  V30 16 C 0.0 -0.5 0.0 0
M  V30 17 C 0.866 -2.9999 0.0 0
M  V30 18 C 2.598 -3.0 0.0 0
M  V30 19 C 1.732 -3.5 0.0 0
M  V30 20 O 1.732 -4.5 0.0 0
M  V30 END ATOM
M  V30 BEGIN BOND
M  V30 1 1 1 2
M  V30 2 2 2 3
M  V30 3 1 2 4
M  V30 4 1 3 5
M  V30 5 2 4 6
M  V30 6 2 5 7
M  V30 7 1 7 8
M  V30 8 2 8 9
M  V30 9 1 8 10
M  V30 10 1 9 11
M  V30 11 1 9 12
M  V30 12 1 10 13
M  V30 13 2 11 14
M  V30 14 1 11 15
M  V30 15 1 12 16
M  V30 16 1 14 17
M  V30 17 2 15 18
M  V30 18 2 17 19
M  V30 19 1 19 20
M  V30 20 1 6 7
M  V30 21 1 18 19
M  V30 END BOND
M  V30 END CTAB
M  END
>  <Molecule Name>


>  <status>
DISCONTINUED

>  <cas>
56-53-1

>  <name>
DIETHYLSTILBESTROL

>  <ID>
12

>  <Smiles>
CC/C(/c(cc1)ccc1O)=C(/CC)\c(cc1)ccc1O

$$$$

Actelion Java MolfileCreator 2.0

  0  0  0  0  0  0              0 V3000
M  V30 BEGIN CTAB
M  V30 COUNTS 17 18 0 0 0
M  V30 BEGIN ATOM
M  V30 1 S 2.598 -0.75 0.0 0
M  V30 2 O 1.848 -2.049 0.0 0
M  V30 3 O 3.348 -2.049 0.0 0
M  V30 4 N 1.299 0.0 0.0 0
M  V30 5 C 3.8971 0.0 0.0 0
M  V30 6 C 0.0 -0.75 0.0 0
M  V30 7 C 5.1961 -0.75 0.0 0
M  V30 8 C 3.8971 1.5 0.0 0
M  V30 9 N -1.299 0.0 0.0 0
M  V30 10 N 0.0 -2.25 0.0 0
M  V30 11 C 6.4952 0.0 0.0 0
M  V30 12 C 5.1961 2.25 0.0 0
M  V30 13 C -2.598 -0.75 0.0 0
M  V30 14 C -1.299 -3.0 0.0 0
M  V30 15 C 6.4952 1.5 0.0 0
M  V30 16 C -2.598 -2.25 0.0 0
M  V30 17 N 7.7942 2.25 0.0 0
M  V30 END ATOM
M  V30 BEGIN BOND
M  V30 1 2 1 2
M  V30 2 2 1 3
M  V30 3 1 1 4
M  V30 4 1 1 5
M  V30 5 1 4 6
M  V30 6 2 5 7
M  V30 7 1 5 8
M  V30 8 2 6 9
M  V30 9 1 6 10
M  V30 10 1 7 11
M  V30 11 2 8 12
M  V30 12 1 9 13
M  V30 13 2 10 14
M  V30 14 2 11 15
M  V30 15 2 13 16
M  V30 16 1 15 17
M  V30 17 1 12 15
M  V30 18 1 14 16
M  V30 END BOND
M  V30 END CTAB
M  END
>  <Molecule Name>


>  <status>
-

>  <cas>
68-35-9

>  <name>
SULFADIAZINE

>  <ID>
13

>  <Smiles>
Nc(cc1)ccc1S(Nc1ncccn1)(=O)=O

$$$$

Actelion Java MolfileCreator 2.0

  0  0  0  0  0  0              0 V3000
M  V30 BEGIN CTAB
M  V30 COUNTS 18 19 0 0 0
M  V30 BEGIN ATOM
M  V30 1 O 2.632 -1.0986 0.0 0
M  V30 2 C 3.8994 0.0 0.0 0
M  V30 3 O 5.1992 -0.7504 0.0 0
M  V30 4 C 3.8994 1.5009 0.0 0
M  V30 5 C 6.4991 0.0 0.0 0
M  V30 6 C 2.5996 0.7504 0.0 0
M  V30 7 C 5.1992 2.2513 0.0 0
M  V30 8 C 2.5996 2.2513 0.0 0
M  V30 9 C 7.7989 -0.7504 0.0 0
M  V30 10 C 1.2998 1.5009 0.0 0
M  V30 11 C 2.4469 -0.5743 0.0 0
M  V30 12 C 5.1992 3.7522 0.0 0
M  V30 13 C 2.5996 3.7522 0.0 0
M  V30 14 C 0.0 0.7504 0.0 0
M  V30 15 C 1.2998 -1.5009 0.0 0
M  V30 16 N 3.8994 4.5027 0.0 0
M  V30 17 C 0.0 -0.7504 0.0 0
M  V30 18 C 3.8994 6.0036 0.0 0
M  V30 END ATOM
M  V30 BEGIN BOND
M  V30 1 2 1 2
M  V30 2 1 2 3
M  V30 3 1 2 4
M  V30 4 1 3 5
M  V30 5 1 4 6
M  V30 6 1 4 7
M  V30 7 1 4 8
M  V30 8 1 5 9
M  V30 9 2 6 10
M  V30 10 1 6 11
M  V30 11 1 7 12
M  V30 12 1 8 13
M  V30 13 1 10 14
M  V30 14 2 11 15
M  V30 15 1 12 16
M  V30 16 2 14 17
M  V30 17 1 16 18
M  V30 18 1 13 16
M  V30 19 1 15 17
M  V30 END BOND
M  V30 END CTAB
M  END
>  <Molecule Name>


>  <status>
-

>  <cas>
57-42-1

>  <name>
MEPERIDINE

>  <ID>
14

>  <Smiles>
CCOC(C1(CCN(C)CC1)c1ccccc1)=O

$$$$

Actelion Java MolfileCreator 2.0

  0  0  0  0  0  0              0 V3000
M  V30 BEGIN CTAB
M  V30 COUNTS 21 23 0 0 0
M  V30 BEGIN ATOM
M  V30 1 O 1.732 -1.5 0.0 0
M  V30 2 C 1.732 -0.5 0.0 0
M  V30 3 O 2.598 0.0 0.0 0
M  V30 4 C 0.866 0.0 0.0 0 CFG=2
M  V30 5 C 3.4641 -0.5 0.0 0 CFG=2
M  V30 6 O 0.866 1.0 0.0 0
M  V30 7 C 0.0 -0.5 0.0 0
M  V30 8 C 4.3444 0.0231 0.0 0
M  V30 9 C 3.4511 -1.5239 0.0 0
M  V30 10 C -0.866 0.0 0.0 0
M  V30 11 C 0.0 -1.4999 0.0 0
M  V30 12 C 5.4816 -0.7306 0.0 0 CFG=1
M  V30 13 C 4.6726 -2.1319 0.0 0 CFG=2
M  V30 14 C -1.732 -0.4999 0.0 0
M  V30 15 C -0.866 -1.9999 0.0 0
M  V30 16 N 4.5681 -1.1374 0.0 0 CHG=1
M  V30 17 C 6.1507 -1.4738 0.0 0
M  V30 18 C 5.6507 -2.3398 0.0 0
M  V30 19 C -1.732 -1.4999 0.0 0
M  V30 20 C 4.0963 -0.3792 0.0 0
M  V30 21 C 3.6755 -1.1079 0.0 0
M  V30 END ATOM
M  V30 BEGIN BOND
M  V30 1 2 1 2
M  V30 2 1 2 3
M  V30 3 1 4 2
M  V30 4 1 5 3 CFG=3
M  V30 5 1 4 6 CFG=1
M  V30 6 1 4 7
M  V30 7 1 5 8
M  V30 8 1 5 9
M  V30 9 2 7 10
M  V30 10 1 7 11
M  V30 11 1 12 8
M  V30 12 1 13 9
M  V30 13 1 10 14
M  V30 14 2 11 15
M  V30 15 1 12 16 CFG=1
M  V30 16 1 12 17
M  V30 17 1 13 18
M  V30 18 2 14 19
M  V30 19 1 16 20
M  V30 20 1 16 21
M  V30 21 1 13 16 CFG=1
M  V30 22 1 15 19
M  V30 23 1 17 18
M  V30 END BOND
M  V30 BEGIN COLLECTION
M  V30 MDLV30/STEABS ATOMS=(3 5 12 13)
M  V30 MDLV30/STERAC1 ATOMS=(1 4)
M  V30 END COLLECTION
M  V30 END CTAB
M  END
>  <Molecule Name>


>  <status>
-

>  <cas>
80-49-9

>  <name>
HOMATROPINE METHYLBROMIDE

>  <ID>
15

>  <Smiles>
C[N+](C)([C@H](CC1)C2)[C@@H]1C[C@H]2OC(C(c1ccccc1)O)=O

$$$$

Actelion Java MolfileCreator 2.0

  0  0  0  0  0  0              0 V3000
M  V30 BEGIN CTAB
M  V30 COUNTS 22 26 0 0 0
M  V30 BEGIN ATOM
M  V30 1 O 4.5846 2.5057 0.0 0
M  V30 2 C 4.7841 1.5258 0.0 0
M  V30 3 C 4.0353 0.8631 0.0 0 CFG=2
M  V30 4 C 5.7325 1.2086 0.0 0
M  V30 5 O 3.0417 0.9761 0.0 0
M  V30 6 C 4.2348 -0.1167 0.0 0 CFG=2
M  V30 7 C 5.8527 0.1541 0.0 0
M  V30 8 C 2.6271 0.0661 0.0 0
M  V30 9 C 3.3645 -0.6093 0.0 0
M  V30 10 C 5.1832 -0.4339 0.0 0 CFG=1
M  V30 11 C 5.2991 0.715 0.0 0
M  V30 12 C 1.732 -0.5 0.0 0
M  V30 13 C 3.5108 -1.631 0.0 0
M  V30 14 C 5.2348 -1.4648 0.0 0 CFG=1
M  V30 15 C 6.2762 0.3263 0.0 0
M  V30 16 O 0.866 0.0 0.0 0
M  V30 17 C 1.6917 -1.4991 0.0 0
M  V30 18 C 2.5368 -2.0337 0.0 0
M  V30 19 C 4.4208 -2.0456 0.0 0
M  V30 20 N 6.3372 -0.6797 0.0 0
M  V30 21 C 0.0 -0.5 0.0 0
M  V30 22 C 7.2498 -1.0886 0.0 0
M  V30 END ATOM
M  V30 BEGIN BOND
M  V30 1 2 1 2
M  V30 2 1 3 2
M  V30 3 1 2 4
M  V30 4 1 3 5 CFG=1
M  V30 5 1 6 3
M  V30 6 1 4 7
M  V30 7 1 5 8
M  V30 8 1 6 9
M  V30 9 1 10 6
M  V30 10 1 6 11 CFG=3
M  V30 11 1 8 12
M  V30 12 1 9 13
M  V30 13 1 14 10
M  V30 14 1 11 15
M  V30 15 1 12 16
M  V30 16 2 12 17
M  V30 17 2 13 18
M  V30 18 1 13 19
M  V30 19 1 14 20 CFG=3
M  V30 20 1 16 21
M  V30 21 1 20 22
M  V30 22 1 10 7 CFG=1
M  V30 23 2 8 9
M  V30 24 1 14 19
M  V30 25 1 15 20
M  V30 26 1 17 18
M  V30 END BOND
M  V30 BEGIN COLLECTION
M  V30 MDLV30/STERAC1 ATOMS=(4 3 6 10 14)
M  V30 END COLLECTION
M  V30 END CTAB
M  END
>  <Molecule Name>


>  <status>
-

>  <cas>
125-29-1

>  <name>
HYDROCODONE

>  <ID>
16

>  <Smiles>
CN(CC1)[C@H](Cc2ccc3OC)[C@H](CC4)[C@@]11c2c3O[C@H]1C4=O

$$$$

Actelion Java MolfileCreator 2.0

  0  0  0  0  0  0              0 V3000
M  V30 BEGIN CTAB
M  V30 COUNTS 20 23 0 0 0
M  V30 BEGIN ATOM
M  V30 1 O 1.4931 5.9671 0.0 0
M  V30 2 C 1.3886 4.9726 0.0 0
M  V30 3 C 2.1976 4.3848 0.0 0
M  V30 4 C 0.4751 4.5658 0.0 0
M  V30 5 C 2.0931 3.3903 0.0 0
M  V30 6 C 0.3705 3.5713 0.0 0
M  V30 7 C 1.1796 2.9835 0.0 0
M  V30 8 C 2.9021 2.8025 0.0 0
M  V30 9 C 1.075 1.989 0.0 0 CFG=2
M  V30 10 C 2.7976 1.8079 0.0 0
M  V30 11 C 1.884 1.4012 0.0 0 CFG=1
M  V30 12 C 0.1615 1.5823 0.0 0
M  V30 13 C 1.7795 0.4067 0.0 0 CFG=1
M  V30 14 C 0.057 0.5877 0.0 0
M  V30 15 C 0.866 0.0 0.0 0 CFG=2
M  V30 16 C 2.4487 -0.3364 0.0 0
M  V30 17 C 0.9705 -0.9945 0.0 0 CFG=2
M  V30 18 C 0.0 -0.5 0.0 0
M  V30 19 C 1.9487 -1.2024 0.0 0
M  V30 20 O 0.2274 -1.6636 0.0 0
M  V30 END ATOM
M  V30 BEGIN BOND
M  V30 1 1 1 2
M  V30 2 2 2 3
M  V30 3 1 2 4
M  V30 4 1 3 5
M  V30 5 2 4 6
M  V30 6 2 5 7
M  V30 7 1 5 8
M  V30 8 1 9 7
M  V30 9 1 8 10
M  V30 10 1 11 9
M  V30 11 1 9 12 CFG=3
M  V30 12 1 13 11
M  V30 13 1 12 14
M  V30 14 1 15 13
M  V30 15 1 13 16 CFG=3
M  V30 16 1 17 15
M  V30 17 1 15 18 CFG=3
M  V30 18 1 16 19
M  V30 19 1 17 20 CFG=3
M  V30 20 1 6 7
M  V30 21 1 11 10 CFG=1
M  V30 22 1 14 15
M  V30 23 1 17 19
M  V30 END BOND
M  V30 BEGIN COLLECTION
M  V30 MDLV30/STERAC1 ATOMS=(5 9 11 13 15 17)
M  V30 END COLLECTION
M  V30 END CTAB
M  END
>  <Molecule Name>


>  <status>
-

>  <cas>
50-28-2

>  <name>
ESTRADIOL

>  <ID>
17

>  <Smiles>
C[C@](CC1)([C@@H](CC2)[C@H](CC3)[C@H]1c(cc1)c3cc1O)[C@H]2O

$$$$

Actelion Java MolfileCreator 2.0

  0  0  0  0  0  0              0 V3000
M  V30 BEGIN CTAB
M  V30 COUNTS 22 25 0 0 0
M  V30 BEGIN ATOM
M  V30 1 O 1.4931 5.9671 0.0 0
M  V30 2 C 1.3886 4.9726 0.0 0
M  V30 3 C 2.1976 4.3848 0.0 0
M  V30 4 C 0.4751 4.5658 0.0 0
M  V30 5 C 2.0931 3.3903 0.0 0
M  V30 6 C 0.3705 3.5713 0.0 0
M  V30 7 C 1.1796 2.9835 0.0 0
M  V30 8 C 2.9021 2.8025 0.0 0
M  V30 9 C 1.075 1.989 0.0 0 CFG=2
M  V30 10 C 2.7976 1.8079 0.0 0
M  V30 11 C 1.884 1.4012 0.0 0 CFG=1
M  V30 12 C 0.1615 1.5823 0.0 0
M  V30 13 C 1.7795 0.4067 0.0 0 CFG=1
M  V30 14 C 0.057 0.5877 0.0 0
M  V30 15 C 0.866 0.0 0.0 0 CFG=2
M  V30 16 C 2.4487 -0.3364 0.0 0
M  V30 17 C 0.9705 -0.9945 0.0 0 CFG=2
M  V30 18 C 0.0 -0.5 0.0 0
M  V30 19 C 1.9487 -1.2024 0.0 0
M  V30 20 O 1.2293 -1.9604 0.0 0
M  V30 21 C 0.2274 -1.6636 0.0 0
M  V30 22 C -0.5157 -2.3327 0.0 0
M  V30 END ATOM
M  V30 BEGIN BOND
M  V30 1 1 1 2
M  V30 2 2 2 3
M  V30 3 1 2 4
M  V30 4 1 3 5
M  V30 5 2 4 6
M  V30 6 2 5 7
M  V30 7 1 5 8
M  V30 8 1 9 7
M  V30 9 1 8 10
M  V30 10 1 11 9
M  V30 11 1 9 12 CFG=3
M  V30 12 1 13 11
M  V30 13 1 12 14
M  V30 14 1 15 13
M  V30 15 1 13 16 CFG=3
M  V30 16 1 17 15
M  V30 17 1 15 18 CFG=3
M  V30 18 1 16 19
M  V30 19 1 17 20 CFG=3
M  V30 20 1 17 21
M  V30 21 3 21 22
M  V30 22 1 6 7
M  V30 23 1 11 10 CFG=1
M  V30 24 1 14 15
M  V30 25 1 17 19
M  V30 END BOND
M  V30 BEGIN COLLECTION
M  V30 MDLV30/STERAC1 ATOMS=(5 9 11 13 15 17)
M  V30 END COLLECTION
M  V30 END CTAB
M  END
>  <Molecule Name>


>  <status>
-

>  <cas>
57-63-6

>  <name>
ETHINYL ESTRADIOL

>  <ID>
18

>  <Smiles>
C[C@](CC1)([C@@H](CC2)[C@H](CC3)[C@H]1c(cc1)c3cc1O)[C@@]2(C#C)O

$$$$

Actelion Java MolfileCreator 2.0

  0  0  0  0  0  0              0 V3000
M  V30 BEGIN CTAB
M  V30 COUNTS 26 29 0 0 0
M  V30 BEGIN ATOM
M  V30 1 O 3.4641 -1.5 0.0 0
M  V30 2 C 3.4641 -0.5 0.0 0
M  V30 3 O 4.3301 0.0 0.0 0
M  V30 4 C 2.598 0.0 0.0 0
M  V30 5 C 5.1961 -0.5 0.0 0 CFG=2
M  V30 6 C 1.732 -0.5 0.0 0
M  V30 7 C 5.3006 -1.4945 0.0 0 CFG=2
M  V30 8 C 6.1096 -0.0932 0.0 0
M  V30 9 C 0.866 0.0 0.0 0
M  V30 10 C 6.2788 -1.7024 0.0 0 CFG=1
M  V30 11 C 4.6315 -2.2376 0.0 0
M  V30 12 C 4.3496 -1.1855 0.0 0
M  V30 13 C 6.7788 -0.8364 0.0 0
M  V30 14 C 0.0 -0.5 0.0 0
M  V30 15 C 6.5878 -2.6534 0.0 0 CFG=1
M  V30 16 C 4.9405 -3.1887 0.0 0
M  V30 17 C 5.9187 -3.3966 0.0 0 CFG=2
M  V30 18 C 7.5659 -2.8614 0.0 0
M  V30 19 C 6.2277 -4.3476 0.0 0
M  V30 20 C 7.875 -3.8124 0.0 0
M  V30 21 C 7.2058 -4.5556 0.0 0
M  V30 22 C 5.5586 -5.0908 0.0 0
M  V30 23 C 7.5148 -5.5066 0.0 0
M  V30 24 C 5.8676 -6.0418 0.0 0
M  V30 25 C 6.8457 -6.2498 0.0 0
M  V30 26 O 7.1547 -7.2008 0.0 0
M  V30 END ATOM
M  V30 BEGIN BOND
M  V30 1 2 1 2
M  V30 2 1 2 3
M  V30 3 1 2 4
M  V30 4 1 5 3 CFG=1
M  V30 5 1 4 6
M  V30 6 1 7 5
M  V30 7 1 5 8
M  V30 8 1 6 9
M  V30 9 1 10 7
M  V30 10 1 7 11
M  V30 11 1 7 12 CFG=1
M  V30 12 1 8 13
M  V30 13 1 9 14
M  V30 14 1 15 10
M  V30 15 1 11 16
M  V30 16 1 17 15
M  V30 17 1 15 18 CFG=3
M  V30 18 1 17 19
M  V30 19 1 18 20
M  V30 20 2 19 21
M  V30 21 1 19 22
M  V30 22 1 21 23
M  V30 23 2 22 24
M  V30 24 2 23 25
M  V30 25 1 25 26
M  V30 26 1 10 13 CFG=1
M  V30 27 1 17 16 CFG=1
M  V30 28 1 20 21
M  V30 29 1 24 25
M  V30 END BOND
M  V30 BEGIN COLLECTION
M  V30 MDLV30/STERAC1 ATOMS=(5 5 7 10 15 17)
M  V30 END COLLECTION
M  V30 END CTAB
M  END
>  <Molecule Name>


>  <status>
-

>  <cas>
979-32-8

>  <name>
ESTRADIOL VALERATE

>  <ID>
19

>  <Smiles>
CCCCC(O[C@@H](CC1)[C@@](C)(CC2)[C@@H]1[C@H](CC1)[C@H]2c(cc2)c1cc2O)=O

$$$$

Actelion Java MolfileCreator 2.0

  0  0  0  0  0  0              0 V3000
M  V30 BEGIN CTAB
M  V30 COUNTS 29 33 0 0 0
M  V30 BEGIN ATOM
M  V30 1 O 2.598 1.0 0.0 0
M  V30 2 C 2.598 0.0 0.0 0
M  V30 3 O 3.4641 -0.5 0.0 0
M  V30 4 C 1.732 -0.5 0.0 0
M  V30 5 C 4.3301 0.0 0.0 0 CFG=2
M  V30 6 C 0.866 0.0 0.0 0
M  V30 7 C 5.2436 -0.4067 0.0 0 CFG=2
M  V30 8 C 4.4346 0.9945 0.0 0
M  V30 9 C 0.0 -0.5 0.0 0
M  V30 10 C 5.9128 0.3364 0.0 0 CFG=1
M  V30 11 C 5.5526 -1.3577 0.0 0
M  V30 12 C 4.5005 -1.0758 0.0 0
M  V30 13 C 5.4128 1.2024 0.0 0
M  V30 14 C -0.9135 -0.0932 0.0 0
M  V30 15 C -0.1045 -1.4945 0.0 0
M  V30 16 C 6.8909 0.1284 0.0 0 CFG=1
M  V30 17 C 6.5308 -1.5657 0.0 0
M  V30 18 C -1.5826 -0.8364 0.0 0
M  V30 19 C -1.0826 -1.7024 0.0 0
M  V30 20 C 7.1999 -0.8225 0.0 0 CFG=2
M  V30 21 C 7.56 0.8716 0.0 0
M  V30 22 C 8.1781 -1.0304 0.0 0
M  V30 23 C 8.5382 0.6637 0.0 0
M  V30 24 C 8.8472 -0.2873 0.0 0
M  V30 25 C 8.4871 -1.9815 0.0 0
M  V30 26 C 9.8253 -0.4952 0.0 0
M  V30 27 C 9.4652 -2.1894 0.0 0
M  V30 28 C 10.1344 -1.4462 0.0 0
M  V30 29 O 11.1125 -1.6542 0.0 0
M  V30 END ATOM
M  V30 BEGIN BOND
M  V30 1 2 1 2
M  V30 2 1 2 3
M  V30 3 1 2 4
M  V30 4 1 5 3 CFG=1
M  V30 5 1 4 6
M  V30 6 1 7 5
M  V30 7 1 5 8
M  V30 8 1 6 9
M  V30 9 1 10 7
M  V30 10 1 7 11
M  V30 11 1 7 12 CFG=1
M  V30 12 1 8 13
M  V30 13 1 9 14
M  V30 14 1 9 15
M  V30 15 1 16 10
M  V30 16 1 11 17
M  V30 17 1 14 18
M  V30 18 1 15 19
M  V30 19 1 20 16
M  V30 20 1 16 21 CFG=3
M  V30 21 1 20 22
M  V30 22 1 21 23
M  V30 23 2 22 24
M  V30 24 1 22 25
M  V30 25 1 24 26
M  V30 26 2 25 27
M  V30 27 2 26 28
M  V30 28 1 28 29
M  V30 29 1 10 13 CFG=1
M  V30 30 1 20 17 CFG=1
M  V30 31 1 18 19
M  V30 32 1 23 24
M  V30 33 1 27 28
M  V30 END BOND
M  V30 BEGIN COLLECTION
M  V30 MDLV30/STERAC1 ATOMS=(5 5 7 10 16 20)
M  V30 END COLLECTION
M  V30 END CTAB
M  END
>  <Molecule Name>


>  <status>
-

>  <cas>
313-06-4

>  <name>
ESTRADIOL CYPIONATE

>  <ID>
20

>  <Smiles>
C[C@](CC1)([C@@H](CC2)[C@H](CC3)[C@H]1c(cc1)c3cc1O)[C@H]2OC(CCC1CCCC1)=O

$$$$
_c001
Actelion Java MolfileCreator 2.0

  0  0  0  0  0  0              0 V3000
M  V30 BEGIN CTAB
M  V30 COUNTS 23 26 0 0 0
M  V30 BEGIN ATOM
M  V30 1 O 2.598 0.0 0.0 0
M  V30 2 C 1.732 -0.5 0.0 0
M  V30 3 O 0.866 0.0 0.0 0
M  V30 4 C 1.732 -1.5 0.0 0
M  V30 5 C 0.0 -0.5 0.0 0
M  V30 6 C 0.0 -1.5 0.0 0
M  V30 7 C -0.866 0.0 0.0 0
M  V30 8 C -0.866 -2.0 0.0 0
M  V30 9 C -1.732 -0.4999 0.0 0
M  V30 10 C -1.732 -1.4999 0.0 0
M  V30 11 C -0.866 -2.9999 0.0 0
M  V30 12 C -2.598 -1.9999 0.0 0 CFG=2
M  V30 13 C -1.732 -3.4999 0.0 0
M  V30 14 C -2.598 -2.9999 0.0 0 CFG=1
M  V30 15 C -3.4641 -1.4999 0.0 0
M  V30 16 C -3.4641 -3.4999 0.0 0 CFG=1
M  V30 17 C -4.3301 -1.9999 0.0 0
M  V30 18 C -4.3301 -2.9999 0.0 0 CFG=2
M  V30 19 C -3.672 -4.4781 0.0 0
M  V30 20 C -5.0732 -3.6691 0.0 0 CFG=2
M  V30 21 C -5.2436 -2.5932 0.0 0
M  V30 22 C -4.6665 -4.5826 0.0 0
M  V30 23 O -6.0514 -3.4612 0.0 0
M  V30 END ATOM
M  V30 BEGIN BOND
M  V30 1 2 1 2
M  V30 2 1 2 3
M  V30 3 1 2 4
M  V30 4 1 3 5
M  V30 5 2 5 6
M  V30 6 1 5 7
M  V30 7 1 6 8
M  V30 8 2 7 9
M  V30 9 2 8 10
M  V30 10 1 8 11
M  V30 11 1 12 10
M  V30 12 1 11 13
M  V30 13 1 14 12
M  V30 14 1 12 15 CFG=3
M  V30 15 1 16 14
M  V30 16 1 15 17
M  V30 17 1 18 16
M  V30 18 1 16 19 CFG=3
M  V30 19 1 20 18
M  V30 20 1 18 21 CFG=3
M  V30 21 1 19 22
M  V30 22 1 20 23 CFG=3
M  V30 23 1 9 10
M  V30 24 1 14 13 CFG=1
M  V30 25 1 17 18
M  V30 26 1 20 22
M  V30 END BOND
M  V30 BEGIN COLLECTION
M  V30 MDLV30/STERAC1 ATOMS=(5 12 14 16 18 20)
M  V30 END COLLECTION
M  V30 END CTAB
M  END
>  <Molecule Name>
_c001

>  <status>
-

>  <cas>
4245-41-4

>  <name>
ESTRADIOL ACETATE

>  <ID>
21

>  <Smiles>
C[C@](CC1)([C@@H](CC2)[C@H](CC3)[C@H]1c(cc1)c3cc1OC(C)=O)[C@H]2O

$$$$

Actelion Java MolfileCreator 2.0

  0  0  0  0  0  0              0 V3000
M  V30 BEGIN CTAB
M  V30 COUNTS 11 11 0 0 0
M  V30 BEGIN ATOM
M  V30 1 N 3.8971 0.0 0.0 0
M  V30 2 C 2.598 -0.75 0.0 0 CFG=2
M  V30 3 C 5.1961 -0.75 0.0 0
M  V30 4 C 1.299 0.0 0.0 0
M  V30 5 C 2.598 -2.25 0.0 0
M  V30 6 C 0.0 -0.75 0.0 0
M  V30 7 C -1.299 0.0 0.0 0
M  V30 8 C 0.0 -2.2499 0.0 0
M  V30 9 C -2.598 -0.7499 0.0 0
M  V30 10 C -1.299 -2.9999 0.0 0
M  V30 11 C -2.598 -2.2499 0.0 0
M  V30 END ATOM
M  V30 BEGIN BOND
M  V30 1 1 2 1 CFG=1
M  V30 2 1 1 3
M  V30 3 1 2 4
M  V30 4 1 2 5
M  V30 5 1 4 6
M  V30 6 2 6 7
M  V30 7 1 6 8
M  V30 8 1 7 9
M  V30 9 2 8 10
M  V30 10 2 9 11
M  V30 11 1 10 11
M  V30 END BOND
M  V30 BEGIN COLLECTION
M  V30 MDLV30/STERAC1 ATOMS=(1 2)
M  V30 END COLLECTION
M  V30 END CTAB
M  END
>  <Molecule Name>


>  <status>
-

>  <cas>
537-46-2

>  <name>
METHAMPHETAMINE

>  <ID>
22

>  <Smiles>
CC(Cc1ccccc1)NC

$$$$

Actelion Java MolfileCreator 2.0

  0  0  0  0  0  0              0 V3000
M  V30 BEGIN CTAB
M  V30 COUNTS 25 28 0 0 0
M  V30 BEGIN ATOM
M  V30 1 O 1.532 -2.7187 0.0 0
M  V30 2 C 2.6193 -2.2683 0.0 0
M  V30 3 C 3.9289 -3.0245 0.0 0
M  V30 4 C 2.6193 -0.7561 0.0 0
M  V30 5 C 5.2386 -2.2683 0.0 0
M  V30 6 C 3.9289 -4.5367 0.0 0
M  V30 7 C 3.9289 0.0 0.0 0
M  V30 8 C 1.3096 0.0 0.0 0
M  V30 9 O 5.2386 -0.7561 0.0 0
M  V30 10 C 6.5483 -3.0245 0.0 0
M  V30 11 C 5.2386 -5.2929 0.0 0
M  V30 12 O 3.9289 1.5122 0.0 0
M  V30 13 C 0.0 -0.7561 0.0 0
M  V30 14 C 6.5483 -4.5367 0.0 0
M  V30 15 C -1.3096 0.0 0.0 0
M  V30 16 C 0.0 -2.2683 0.0 0
M  V30 17 O -2.6193 -0.7561 0.0 0
M  V30 18 O -1.3096 1.5122 0.0 0
M  V30 19 O 1.1984 -3.1774 0.0 0
M  V30 20 C -1.3096 -3.0245 0.0 0
M  V30 21 C -2.6193 -2.2683 0.0 0
M  V30 22 C -1.3096 -4.5367 0.0 0
M  V30 23 C -3.9289 -3.0245 0.0 0
M  V30 24 C -2.6193 -5.2929 0.0 0
M  V30 25 C -3.9289 -4.5367 0.0 0
M  V30 END ATOM
M  V30 BEGIN BOND
M  V30 1 2 1 2
M  V30 2 1 2 3
M  V30 3 1 2 4
M  V30 4 2 3 5
M  V30 5 1 3 6
M  V30 6 2 4 7
M  V30 7 1 4 8
M  V30 8 1 5 9
M  V30 9 1 5 10
M  V30 10 2 6 11
M  V30 11 1 7 12
M  V30 12 1 8 13
M  V30 13 2 10 14
M  V30 14 2 13 15
M  V30 15 1 13 16
M  V30 16 1 15 17
M  V30 17 1 15 18
M  V30 18 2 16 19
M  V30 19 1 16 20
M  V30 20 1 17 21
M  V30 21 1 20 22
M  V30 22 1 21 23
M  V30 23 2 22 24
M  V30 24 2 23 25
M  V30 25 1 7 9
M  V30 26 1 11 14
M  V30 27 2 20 21
M  V30 28 1 24 25
M  V30 END BOND
M  V30 END CTAB
M  END
>  <Molecule Name>


>  <status>
DISCONTINUED

>  <cas>
66-76-2

>  <name>
DICUMAROL

>  <ID>
23

>  <Smiles>
OC(Oc1c2cccc1)=C(CC1=C(O)Oc(cccc3)c3C1=O)C2=O

$$$$

Actelion Java MolfileCreator 2.0

  0  0  0  0  0  0              0 V3000
M  V30 BEGIN CTAB
M  V30 COUNTS 21 21 0 0 0
M  V30 BEGIN ATOM
M  V30 1 O 12.9904 -0.75 0.0 0
M  V30 2 C 11.6913 0.0 0.0 0
M  V30 3 C 10.3923 -0.75 0.0 0
M  V30 4 C 9.0932 0.0 0.0 0
M  V30 5 C 7.7942 -0.75 0.0 0
M  V30 6 C 9.0932 1.5 0.0 0
M  V30 7 C 6.4952 0.0 0.0 0
M  V30 8 C 5.1961 -0.75 0.0 0
M  V30 9 C 3.8971 0.0 0.0 0
M  V30 10 C 2.598 -0.75 0.0 0
M  V30 11 C 3.8971 1.5 0.0 0
M  V30 12 C 1.299 0.0 0.0 0
M  V30 13 C 0.0 -0.75 0.0 0
M  V30 14 C -1.299 0.0 0.0 0
M  V30 15 C 0.0 -2.25 0.0 0
M  V30 16 C -2.598 -0.75 0.0 0
M  V30 17 C -1.299 1.5 0.0 0
M  V30 18 C -1.299 -3.0 0.0 0
M  V30 19 C 0.7499 -3.549 0.0 0
M  V30 20 C 1.4999 -2.2499 0.0 0
M  V30 21 C -2.598 -2.25 0.0 0
M  V30 END ATOM
M  V30 BEGIN BOND
M  V30 1 1 1 2
M  V30 2 1 2 3
M  V30 3 2 3 4
M  V30 4 1 4 5
M  V30 5 1 4 6
M  V30 6 2 5 7
M  V30 7 1 7 8
M  V30 8 2 8 9
M  V30 9 1 9 10
M  V30 10 1 9 11
M  V30 11 2 10 12
M  V30 12 1 12 13
M  V30 13 2 13 14
M  V30 14 1 13 15
M  V30 15 1 14 16
M  V30 16 1 14 17
M  V30 17 1 15 18
M  V30 18 1 15 19
M  V30 19 1 15 20
M  V30 20 1 16 21
M  V30 21 1 18 21
M  V30 END BOND
M  V30 END CTAB
M  END
>  <Molecule Name>


>  <status>
-

>  <cas>
68-26-8

>  <name>
VITAMIN A

>  <ID>
24

>  <Smiles>
CC1(C)C(/C=C/C(/C)=C/C=C/C(/C)=C/CO)=C(C)CCC1

$$$$

Actelion Java MolfileCreator 2.0

  0  0  0  0  0  0              0 V3000
M  V30 BEGIN CTAB
M  V30 COUNTS 45 51 0 0 0
M  V30 BEGIN ATOM
M  V30 1 O 2.6513 1.1913 0.0 0
M  V30 2 C 2.598 0.0 0.0 0
M  V30 3 C 3.043 2.2808 0.0 0
M  V30 4 C 1.732 -0.5 0.0 0
M  V30 5 C 3.4641 -0.4999 0.0 0
M  V30 6 C 2.4204 3.0634 0.0 0
M  V30 7 C 4.032 2.4287 0.0 0
M  V30 8 O 0.866 0.0 0.0 0
M  V30 9 C 1.732 -1.5 0.0 0
M  V30 10 C 3.4641 -1.4999 0.0 0
M  V30 11 O 1.4314 2.9154 0.0 0
M  V30 12 C 2.7868 3.9938 0.0 0
M  V30 13 C 4.3984 3.3592 0.0 0
M  V30 14 C 0.0 -0.5 0.0 0
M  V30 15 C 2.598 -1.9999 0.0 0
M  V30 16 C 4.3301 -1.9999 0.0 0 CFG=1
M  V30 17 C 3.7758 4.1417 0.0 0
M  V30 18 C 5.5599 3.4493 0.0 0
M  V30 19 C 2.598 -2.9999 0.0 0
M  V30 20 N 4.3301 -2.9999 0.0 0
M  V30 21 C 5.3979 -2.2608 0.0 0
M  V30 22 C 6.5449 3.1364 0.0 0 CFG=2
M  V30 23 C 3.4641 -3.4999 0.0 0
M  V30 24 C 5.1961 -3.4999 0.0 0
M  V30 25 C 7.018 -2.0841 0.0 0
M  V30 26 N 6.2275 4.0847 0.0 0 CHG=1
M  V30 27 C 7.5248 2.9372 0.0 0
M  V30 28 C 6.7006 -1.1358 0.0 0
M  V30 29 C 7.9979 -2.2834 0.0 0
M  V30 30 C 6.89 4.8338 0.0 0
M  V30 31 C 5.4785 4.7473 0.0 0
M  V30 32 C 5.2526 3.8376 0.0 0
M  V30 33 C 7.8422 1.9889 0.0 0
M  V30 34 C 8.1874 3.6862 0.0 0
M  V30 35 C 7.3631 -0.3868 0.0 0
M  V30 36 C 8.6605 -1.5344 0.0 0
M  V30 37 C 7.87 4.6345 0.0 0
M  V30 38 O 8.3207 1.0434 0.0 0
M  V30 39 C 8.8222 1.7896 0.0 0
M  V30 40 C 9.1673 3.4869 0.0 0
M  V30 41 C 8.3431 -0.5861 0.0 0
M  V30 42 O 9.1396 0.8413 0.0 0
M  V30 43 C 9.4847 2.5386 0.0 0
M  V30 44 O 10.4647 2.3394 0.0 0
M  V30 45 C 11.1272 3.0884 0.0 0
M  V30 END ATOM
M  V30 BEGIN BOND
M  V30 1 1 1 2
M  V30 2 1 1 3
M  V30 3 2 2 4
M  V30 4 1 2 5
M  V30 5 2 3 6
M  V30 6 1 3 7
M  V30 7 1 4 8
M  V30 8 1 4 9
M  V30 9 2 5 10
M  V30 10 1 6 11
M  V30 11 1 6 12
M  V30 12 2 7 13
M  V30 13 1 8 14
M  V30 14 2 9 15
M  V30 15 1 16 10
M  V30 16 2 12 17
M  V30 17 1 13 18
M  V30 18 1 15 19
M  V30 19 1 16 20 CFG=3
M  V30 20 1 16 21
M  V30 21 1 22 18
M  V30 22 1 19 23
M  V30 23 1 20 24
M  V30 24 1 21 25
M  V30 25 1 22 26 CFG=1
M  V30 26 1 22 27
M  V30 27 2 25 28
M  V30 28 1 25 29
M  V30 29 1 26 30
M  V30 30 1 26 31
M  V30 31 1 26 32
M  V30 32 2 27 33
M  V30 33 1 27 34
M  V30 34 1 28 35
M  V30 35 2 29 36
M  V30 36 1 30 37
M  V30 37 1 33 38
M  V30 38 1 33 39
M  V30 39 2 34 40
M  V30 40 2 35 41
M  V30 41 1 39 42
M  V30 42 2 39 43
M  V30 43 1 43 44
M  V30 44 1 44 45
M  V30 45 1 10 15
M  V30 46 1 13 17
M  V30 47 1 20 23
M  V30 48 1 34 37
M  V30 49 1 36 41
M  V30 50 1 38 41
M  V30 51 1 40 43
M  V30 END BOND
M  V30 BEGIN COLLECTION
M  V30 MDLV30/STERAC1 ATOMS=(2 16 22)
M  V30 END COLLECTION
M  V30 END CTAB
M  END
>  <Molecule Name>


>  <status>
DISCONTINUED

>  <cas>
57-95-4

>  <name>
TUBOCURARINE

>  <ID>
25

>  <Smiles>
CN(CCc1c2)[C@@H](Cc(cc3)ccc3Oc3c([C@H](Cc(cc4)cc(O5)c4O)[N+](C)(C)CC4)c4cc(OC)c3O)c1cc5c2OC

$$$$
_c001
Actelion Java MolfileCreator 2.0

  0  0  0  0  0  0              0 V3000
M  V30 BEGIN CTAB
M  V30 COUNTS 19 20 0 0 0
M  V30 BEGIN ATOM
M  V30 1 S 3.8971 0.0 0.0 0
M  V30 2 O 4.6471 1.299 0.0 0
M  V30 3 O 3.1471 1.299 0.0 0
M  V30 4 N 2.598 -0.75 0.0 0
M  V30 5 C 5.1961 -0.75 0.0 0
M  V30 6 C 1.299 0.0 0.0 0
M  V30 7 C 5.1961 -2.25 0.0 0
M  V30 8 C 6.4952 0.0 0.0 0
M  V30 9 O 1.299 1.5 0.0 0
M  V30 10 C 0.0 -0.75 0.0 0
M  V30 11 C 6.4952 -3.0 0.0 0
M  V30 12 C 7.7942 -0.75 0.0 0
M  V30 13 C -1.299 0.0 0.0 0
M  V30 14 C 0.0 -2.25 0.0 0
M  V30 15 C 7.7942 -2.25 0.0 0
M  V30 16 C -2.598 -0.75 0.0 0
M  V30 17 C -1.299 -3.0 0.0 0
M  V30 18 N 9.0932 -3.0 0.0 0
M  V30 19 C -2.598 -2.25 0.0 0
M  V30 END ATOM
M  V30 BEGIN BOND
M  V30 1 2 1 2
M  V30 2 2 1 3
M  V30 3 1 1 4
M  V30 4 1 1 5
M  V30 5 1 4 6
M  V30 6 2 5 7
M  V30 7 1 5 8
M  V30 8 2 6 9
M  V30 9 1 6 10
M  V30 10 1 7 11
M  V30 11 2 8 12
M  V30 12 2 10 13
M  V30 13 1 10 14
M  V30 14 2 11 15
M  V30 15 1 13 16
M  V30 16 2 14 17
M  V30 17 1 15 18
M  V30 18 2 16 19
M  V30 19 1 12 15
M  V30 20 1 17 19
M  V30 END BOND
M  V30 END CTAB
M  END
>  <Molecule Name>
_c001

>  <status>
DISCONTINUED

>  <cas>
127-71-9

>  <name>
SULFABENZAMIDE

>  <ID>
26

>  <Smiles>
Nc(cc1)ccc1S(NC(c1ccccc1)=O)(=O)=O

$$$$

Actelion Java MolfileCreator 2.0

  0  0  0  0  0  0              0 V3000
M  V30 BEGIN CTAB
M  V30 COUNTS 14 14 0 0 0
M  V30 BEGIN ATOM
M  V30 1 S 3.8971 0.0 0.0 0
M  V30 2 O 4.6471 1.299 0.0 0
M  V30 3 O 3.1471 1.299 0.0 0
M  V30 4 N 2.598 -0.75 0.0 0
M  V30 5 C 5.1961 -0.75 0.0 0
M  V30 6 C 1.299 0.0 0.0 0
M  V30 7 C 5.1961 -2.25 0.0 0
M  V30 8 C 6.4952 0.0 0.0 0
M  V30 9 O 1.299 1.5 0.0 0
M  V30 10 C 0.0 -0.75 0.0 0
M  V30 11 C 6.4952 -3.0 0.0 0
M  V30 12 C 7.7942 -0.75 0.0 0
M  V30 13 C 7.7942 -2.25 0.0 0
M  V30 14 N 9.0932 -3.0 0.0 0
M  V30 END ATOM
M  V30 BEGIN BOND
M  V30 1 2 1 2
M  V30 2 2 1 3
M  V30 3 1 1 4
M  V30 4 1 1 5
M  V30 5 1 4 6
M  V30 6 2 5 7
M  V30 7 1 5 8
M  V30 8 2 6 9
M  V30 9 1 6 10
M  V30 10 1 7 11
M  V30 11 2 8 12
M  V30 12 2 11 13
M  V30 13 1 13 14
M  V30 14 1 12 13
M  V30 END BOND
M  V30 END CTAB
M  END
>  <Molecule Name>


>  <status>
-

>  <cas>
144-80-9

>  <name>
SULFACETAMIDE

>  <ID>
27

>  <Smiles>
CC(NS(c(cc1)ccc1N)(=O)=O)=O

$$$$
_c001
Actelion Java MolfileCreator 2.0

  0  0  0  0  0  0              0 V3000
M  V30 BEGIN CTAB
M  V30 COUNTS 16 17 0 0 0
M  V30 BEGIN ATOM
M  V30 1 S 2.598 -0.75 0.0 0
M  V30 2 O 1.848 -2.049 0.0 0
M  V30 3 O 3.348 -2.049 0.0 0
M  V30 4 N 1.299 0.0 0.0 0
M  V30 5 C 3.8971 0.0 0.0 0
M  V30 6 C 0.0 -0.75 0.0 0
M  V30 7 C 5.1961 -0.75 0.0 0
M  V30 8 C 3.8971 1.5 0.0 0
M  V30 9 S -1.3703 -0.1398 0.0 0
M  V30 10 N -0.1567 -2.2417 0.0 0
M  V30 11 C 6.4952 0.0 0.0 0
M  V30 12 C 5.1961 2.25 0.0 0
M  V30 13 C -2.374 -1.2546 0.0 0
M  V30 14 C -1.624 -2.5536 0.0 0
M  V30 15 C 6.4952 1.5 0.0 0
M  V30 16 N 7.7942 2.25 0.0 0
M  V30 END ATOM
M  V30 BEGIN BOND
M  V30 1 2 1 2
M  V30 2 2 1 3
M  V30 3 1 1 4
M  V30 4 1 1 5
M  V30 5 1 4 6
M  V30 6 2 5 7
M  V30 7 1 5 8
M  V30 8 1 6 9
M  V30 9 2 6 10
M  V30 10 1 7 11
M  V30 11 2 8 12
M  V30 12 1 9 13
M  V30 13 1 10 14
M  V30 14 2 11 15
M  V30 15 1 15 16
M  V30 16 1 12 15
M  V30 17 2 13 14
M  V30 END BOND
M  V30 END CTAB
M  END
>  <Molecule Name>
_c001

>  <status>
DISCONTINUED

>  <cas>
72-14-0

>  <name>
SULFATHIAZOLE

>  <ID>
28

>  <Smiles>
Nc(cc1)ccc1S(Nc1nccs1)(=O)=O

$$$$

Actelion Java MolfileCreator 2.0

  0  0  0  0  0  0              0 V3000
M  V30 BEGIN CTAB
M  V30 COUNTS 14 14 0 0 0
M  V30 BEGIN ATOM
M  V30 1 O 6.814 2.2205 0.0 0
M  V30 2 N 5.8195 2.1159 0.0 0 CHG=1
M  V30 3 O 5.2317 2.9249 0.0 0 CHG=-1
M  V30 4 C 5.4128 1.2024 0.0 0
M  V30 5 O 4.4346 0.9945 0.0 0
M  V30 6 C 5.9128 0.3364 0.0 0
M  V30 7 C 4.3301 0.0 0.0 0
M  V30 8 C 5.2436 -0.4067 0.0 0
M  V30 9 C 3.4641 -0.5 0.0 0
M  V30 10 N 2.598 0.0 0.0 0
M  V30 11 N 1.732 -0.5 0.0 0
M  V30 12 C 0.866 0.0 0.0 0
M  V30 13 O 0.866 1.0 0.0 0
M  V30 14 N 0.0 -0.5 0.0 0
M  V30 END ATOM
M  V30 BEGIN BOND
M  V30 1 2 1 2
M  V30 2 1 2 3
M  V30 3 1 2 4
M  V30 4 1 4 5
M  V30 5 2 4 6
M  V30 6 1 5 7
M  V30 7 1 6 8
M  V30 8 1 7 9
M  V30 9 2 9 10
M  V30 10 1 10 11
M  V30 11 1 11 12
M  V30 12 2 12 13
M  V30 13 1 12 14
M  V30 14 2 7 8
M  V30 END BOND
M  V30 END CTAB
M  END
>  <Molecule Name>


>  <status>
DISCONTINUED

>  <cas>
59-87-0

>  <name>
NITROFURAZONE

>  <ID>
29

>  <Smiles>
NC(N/N=C/c1ccc([N+]([O-])=O)o1)=O

$$$$

Actelion Java MolfileCreator 2.0

  0  0  0  0  0  0              0 V3000
M  V30 BEGIN CTAB
M  V30 COUNTS 19 20 0 0 0
M  V30 BEGIN ATOM
M  V30 1 O 3.4641 -0.5 0.0 0
M  V30 2 C 4.3301 0.0 0.0 0
M  V30 3 C 2.598 0.0 0.0 0
M  V30 4 C 5.1961 -0.5 0.0 0
M  V30 5 C 4.3301 1.0 0.0 0
M  V30 6 C 1.732 -0.5 0.0 0
M  V30 7 C 5.1961 -1.5 0.0 0
M  V30 8 C 6.0621 0.0 0.0 0
M  V30 9 C 5.1961 1.4999 0.0 0
M  V30 10 C 3.4641 1.5 0.0 0
M  V30 11 N 0.866 0.0 0.0 0
M  V30 12 C 6.0621 -2.0 0.0 0
M  V30 13 C 6.9282 -0.5 0.0 0
M  V30 14 C 5.1961 2.4999 0.0 0
M  V30 15 C 3.4641 2.5 0.0 0
M  V30 16 C 0.866 1.0 0.0 0
M  V30 17 C 0.0 -0.5 0.0 0
M  V30 18 C 6.9282 -1.5 0.0 0
M  V30 19 C 4.3301 2.9999 0.0 0
M  V30 END ATOM
M  V30 BEGIN BOND
M  V30 1 1 1 2
M  V30 2 1 1 3
M  V30 3 1 2 4
M  V30 4 1 2 5
M  V30 5 1 3 6
M  V30 6 2 4 7
M  V30 7 1 4 8
M  V30 8 2 5 9
M  V30 9 1 5 10
M  V30 10 1 6 11
M  V30 11 1 7 12
M  V30 12 2 8 13
M  V30 13 1 9 14
M  V30 14 2 10 15
M  V30 15 1 11 16
M  V30 16 1 11 17
M  V30 17 2 12 18
M  V30 18 2 14 19
M  V30 19 1 13 18
M  V30 20 1 15 19
M  V30 END BOND
M  V30 END CTAB
M  END
>  <Molecule Name>


>  <status>
-

>  <cas>
58-73-1

>  <name>
DIPHENHYDRAMINE

>  <ID>
30

>  <Smiles>
CN(C)CCOC(c1ccccc1)c1ccccc1

$$$$

Actelion Java MolfileCreator 2.0

  0  0  0  0  0  0              0 V3000
M  V30 BEGIN CTAB
M  V30 COUNTS 35 37 0 0 0
M  V30 BEGIN ATOM
M  V30 1 F 3.8301 2.1339 0.0 0
M  V30 2 C 4.3301 3.0 0.0 0
M  V30 3 F 3.4641 3.5 0.0 0
M  V30 4 F 4.8301 3.866 0.0 0
M  V30 5 C 5.1961 2.5 0.0 0
M  V30 6 O 5.1961 1.5 0.0 0
M  V30 7 C 6.0621 1.0 0.0 0
M  V30 8 C 6.0621 0.0 0.0 0
M  V30 9 C 6.9282 1.4999 0.0 0
M  V30 10 O 5.1961 -0.5 0.0 0
M  V30 11 C 6.9282 -0.5 0.0 0
M  V30 12 C 7.7942 1.0 0.0 0
M  V30 13 C 4.3301 0.0 0.0 0
M  V30 14 C 7.7942 0.0 0.0 0
M  V30 15 C 3.4641 -0.5 0.0 0
M  V30 16 N 2.598 0.0 0.0 0
M  V30 17 C 1.732 -0.5 0.0 0 CFG=2
M  V30 18 C 0.866 0.0 0.0 0
M  V30 19 C 1.732 -1.5 0.0 0
M  V30 20 C 0.0 -0.5 0.0 0
M  V30 21 C -0.866 0.0 0.0 0
M  V30 22 C 0.0 -1.4999 0.0 0
M  V30 23 C -1.732 -0.4999 0.0 0
M  V30 24 C -0.866 -1.9999 0.0 0
M  V30 25 C -1.732 -1.4999 0.0 0
M  V30 26 C -2.598 0.0 0.0 0
M  V30 27 C -1.0739 -2.9781 0.0 0
M  V30 28 N -2.4751 -2.1691 0.0 0
M  V30 29 O -2.598 1.0 0.0 0
M  V30 30 N -3.4641 -0.4999 0.0 0
M  V30 31 C -2.0684 -3.0826 0.0 0
M  V30 32 C -3.4533 -1.9612 0.0 0
M  V30 33 C -4.1224 -2.7043 0.0 0
M  V30 34 C -5.1006 -2.4964 0.0 0
M  V30 35 O -5.7697 -3.2395 0.0 0
M  V30 END ATOM
M  V30 BEGIN BOND
M  V30 1 1 1 2
M  V30 2 1 2 3
M  V30 3 1 2 4
M  V30 4 1 2 5
M  V30 5 1 5 6
M  V30 6 1 6 7
M  V30 7 2 7 8
M  V30 8 1 7 9
M  V30 9 1 8 10
M  V30 10 1 8 11
M  V30 11 2 9 12
M  V30 12 1 10 13
M  V30 13 2 11 14
M  V30 14 1 13 15
M  V30 15 1 15 16
M  V30 16 1 17 16 CFG=1
M  V30 17 1 17 18
M  V30 18 1 17 19
M  V30 19 1 18 20
M  V30 20 2 20 21
M  V30 21 1 20 22
M  V30 22 1 21 23
M  V30 23 2 22 24
M  V30 24 2 23 25
M  V30 25 1 23 26
M  V30 26 1 24 27
M  V30 27 1 25 28
M  V30 28 2 26 29
M  V30 29 1 26 30
M  V30 30 1 27 31
M  V30 31 1 28 32
M  V30 32 1 32 33
M  V30 33 1 33 34
M  V30 34 1 34 35
M  V30 35 1 12 14
M  V30 36 1 24 25
M  V30 37 1 28 31
M  V30 END BOND
M  V30 BEGIN COLLECTION
M  V30 MDLV30/STERAC1 ATOMS=(1 17)
M  V30 END COLLECTION
M  V30 END CTAB
M  END
>  <Molecule Name>


>  <status>
-

>  <cas>
160970-54-7

>  <name>
SILODOSIN

>  <ID>
31

>  <Smiles>
CC(Cc1cc(C(N)=O)c2N(CCCO)CCc2c1)NCCOc(cccc1)c1OCC(F)(F)F

$$$$

Actelion Java MolfileCreator 2.0

  0  0  0  0  0  0              0 V3000
M  V30 BEGIN CTAB
M  V30 COUNTS 10 10 0 0 0
M  V30 BEGIN ATOM
M  V30 1 O 1.299 0.0 0.0 0
M  V30 2 C 0.0 -0.75 0.0 0
M  V30 3 O -1.3703 -0.1398 0.0 0
M  V30 4 N -0.1567 -2.2417 0.0 0
M  V30 5 C -2.374 -1.2546 0.0 0
M  V30 6 C -1.624 -2.5536 0.0 0
M  V30 7 C 0.9579 -3.2454 0.0 0
M  V30 8 C -3.5875 -0.3729 0.0 0
M  V30 9 C -3.7443 -1.8647 0.0 0
M  V30 10 O -2.2341 -3.9239 0.0 0
M  V30 END ATOM
M  V30 BEGIN BOND
M  V30 1 2 1 2
M  V30 2 1 2 3
M  V30 3 1 2 4
M  V30 4 1 3 5
M  V30 5 1 4 6
M  V30 6 1 4 7
M  V30 7 1 5 8
M  V30 8 1 5 9
M  V30 9 2 6 10
M  V30 10 1 5 6
M  V30 END BOND
M  V30 END CTAB
M  END
>  <Molecule Name>


>  <status>
DISCONTINUED

>  <cas>
127-48-0

>  <name>
TRIMETHADIONE

>  <ID>
32

>  <Smiles>
CC(C)(C(N1C)=O)OC1=O

$$$$

Actelion Java MolfileCreator 2.0

  0  0  0  0  0  0              0 V3000
M  V30 BEGIN CTAB
M  V30 COUNTS 32 34 0 0 0
M  V30 BEGIN ATOM
M  V30 1 O 12.9903 0.0 0.0 0
M  V30 2 C 12.9903 0.9999 0.0 0
M  V30 3 N 13.8564 1.4999 0.0 0
M  V30 4 C 12.1243 1.4999 0.0 0
M  V30 5 C 13.8564 2.4999 0.0 0
M  V30 6 N 11.2583 0.9999 0.0 0
M  V30 7 C 12.1243 2.4999 0.0 0
M  V30 8 N 12.9903 2.9999 0.0 0
M  V30 9 N 14.7224 2.9999 0.0 0
M  V30 10 C 10.3923 1.4999 0.0 0
M  V30 11 N 11.2583 2.9999 0.0 0
M  V30 12 C 10.3923 2.4999 0.0 0
M  V30 13 C 9.5262 0.9999 0.0 0
M  V30 14 N 8.6602 1.4999 0.0 0
M  V30 15 C 7.7942 0.9999 0.0 0
M  V30 16 C 6.9282 1.4999 0.0 0
M  V30 17 C 7.7942 0.0 0.0 0
M  V30 18 C 6.0621 0.9999 0.0 0
M  V30 19 C 6.9282 -0.5 0.0 0
M  V30 20 C 6.0621 0.0 0.0 0
M  V30 21 C 5.1961 -0.5 0.0 0
M  V30 22 O 5.1961 -1.4999 0.0 0
M  V30 23 N 4.3301 0.0 0.0 0
M  V30 24 C 3.4641 -0.5 0.0 0 CFG=2
M  V30 25 C 3.4641 -1.5 0.0 0
M  V30 26 C 2.598 0.0 0.0 0
M  V30 27 O 2.598 -1.9999 0.0 0
M  V30 28 O 4.3301 -2.0 0.0 0 CHG=-1
M  V30 29 C 1.732 -0.5 0.0 0
M  V30 30 C 0.866 0.0 0.0 0
M  V30 31 O 0.866 1.0 0.0 0
M  V30 32 O 0.0 -0.5 0.0 0 CHG=-1
M  V30 END ATOM
M  V30 BEGIN BOND
M  V30 1 2 1 2
M  V30 2 1 2 3
M  V30 3 1 2 4
M  V30 4 2 3 5
M  V30 5 2 4 6
M  V30 6 1 4 7
M  V30 7 1 5 8
M  V30 8 1 5 9
M  V30 9 1 6 10
M  V30 10 2 7 11
M  V30 11 2 10 12
M  V30 12 1 10 13
M  V30 13 1 13 14
M  V30 14 1 14 15
M  V30 15 2 15 16
M  V30 16 1 15 17
M  V30 17 1 16 18
M  V30 18 2 17 19
M  V30 19 2 18 20
M  V30 20 1 20 21
M  V30 21 2 21 22
M  V30 22 1 21 23
M  V30 23 1 24 23 CFG=3
M  V30 24 1 24 25
M  V30 25 1 24 26
M  V30 26 2 25 27
M  V30 27 1 25 28
M  V30 28 1 26 29
M  V30 29 1 29 30
M  V30 30 2 30 31
M  V30 31 1 30 32
M  V30 32 1 7 8
M  V30 33 1 11 12
M  V30 34 1 19 20
M  V30 END BOND
M  V30 BEGIN COLLECTION
M  V30 MDLV30/STERAC1 ATOMS=(1 24)
M  V30 END COLLECTION
M  V30 END CTAB
M  END
>  <Molecule Name>


>  <status>
-

>  <cas>
59-30-3

>  <name>
FOLIC ACID

>  <ID>
33

>  <Smiles>
NC(Nc1ncc(CNc(cc2)ccc2C(NC(CCC([O-])=O)C([O-])=O)=O)nc11)=NC1=O

$$$$

Actelion Java MolfileCreator 2.0

  0  0  0  0  0  0              0 V3000
M  V30 BEGIN CTAB
M  V30 COUNTS 19 20 0 0 0
M  V30 BEGIN ATOM
M  V30 1 N 4.3301 -1.9999 0.0 0
M  V30 2 C 3.4641 -1.5 0.0 0
M  V30 3 C 4.3301 -2.9999 0.0 0
M  V30 4 N 3.4641 -0.5 0.0 0
M  V30 5 C 2.598 -2.0 0.0 0
M  V30 6 C 3.4641 -3.5 0.0 0
M  V30 7 C 4.3301 0.0 0.0 0
M  V30 8 C 2.598 0.0 0.0 0
M  V30 9 C 2.598 -3.0 0.0 0
M  V30 10 C 5.1961 -0.5 0.0 0
M  V30 11 C 1.732 -0.5 0.0 0
M  V30 12 C 5.1961 -1.5 0.0 0
M  V30 13 C 6.0621 0.0 0.0 0
M  V30 14 N 0.866 0.0 0.0 0
M  V30 15 C 6.0621 -2.0 0.0 0
M  V30 16 C 6.9282 -0.5 0.0 0
M  V30 17 C 0.866 1.0 0.0 0
M  V30 18 C 0.0 -0.5 0.0 0
M  V30 19 C 6.9282 -1.5 0.0 0
M  V30 END ATOM
M  V30 BEGIN BOND
M  V30 1 2 1 2
M  V30 2 1 1 3
M  V30 3 1 2 4
M  V30 4 1 2 5
M  V30 5 2 3 6
M  V30 6 1 4 7
M  V30 7 1 4 8
M  V30 8 2 5 9
M  V30 9 1 7 10
M  V30 10 1 8 11
M  V30 11 2 10 12
M  V30 12 1 10 13
M  V30 13 1 11 14
M  V30 14 1 12 15
M  V30 15 2 13 16
M  V30 16 1 14 17
M  V30 17 1 14 18
M  V30 18 2 15 19
M  V30 19 1 6 9
M  V30 20 1 16 19
M  V30 END BOND
M  V30 END CTAB
M  END
>  <Molecule Name>


>  <status>
DISCONTINUED

>  <cas>
91-81-6

>  <name>
TRIPELENNAMINE

>  <ID>
34

>  <Smiles>
CN(C)CCN(Cc1ccccc1)c1ncccc1

$$$$

Actelion Java MolfileCreator 2.0

  0  0  0  0  0  0              0 V3000
M  V30 BEGIN CTAB
M  V30 COUNTS 21 23 0 0 0
M  V30 BEGIN ATOM
M  V30 1 O 1.732 -1.5 0.0 0
M  V30 2 C 1.732 -0.5 0.0 0
M  V30 3 O 2.598 0.0 0.0 0
M  V30 4 C 0.866 0.0 0.0 0 CFG=2
M  V30 5 C 3.4641 -0.5 0.0 0 CFG=2
M  V30 6 O 0.866 1.0 0.0 0
M  V30 7 C 0.0 -0.5 0.0 0
M  V30 8 C 4.3444 0.0231 0.0 0
M  V30 9 C 3.4511 -1.5239 0.0 0
M  V30 10 C -0.866 0.0 0.0 0
M  V30 11 C 0.0 -1.4999 0.0 0
M  V30 12 C 5.4816 -0.7306 0.0 0 CFG=2
M  V30 13 C 4.6726 -2.1319 0.0 0 CFG=1
M  V30 14 C -1.732 -0.4999 0.0 0
M  V30 15 C -0.866 -1.9999 0.0 0
M  V30 16 N 4.5681 -1.1374 0.0 0 CHG=1
M  V30 17 C 6.1507 -1.4738 0.0 0
M  V30 18 C 5.6507 -2.3398 0.0 0
M  V30 19 C -1.732 -1.4999 0.0 0
M  V30 20 C 4.0963 -0.3792 0.0 0
M  V30 21 C 3.6755 -1.1079 0.0 0
M  V30 END ATOM
M  V30 BEGIN BOND
M  V30 1 2 1 2
M  V30 2 1 2 3
M  V30 3 1 4 2
M  V30 4 1 5 3 CFG=3
M  V30 5 1 4 6 CFG=1
M  V30 6 1 4 7
M  V30 7 1 5 8
M  V30 8 1 5 9
M  V30 9 2 7 10
M  V30 10 1 7 11
M  V30 11 1 12 8
M  V30 12 1 13 9
M  V30 13 1 10 14
M  V30 14 2 11 15
M  V30 15 1 12 16 CFG=3
M  V30 16 1 12 17
M  V30 17 1 13 18
M  V30 18 2 14 19
M  V30 19 1 16 20
M  V30 20 1 16 21
M  V30 21 1 13 16 CFG=3
M  V30 22 1 15 19
M  V30 23 1 17 18
M  V30 END BOND
M  V30 BEGIN COLLECTION
M  V30 MDLV30/STEABS ATOMS=(3 5 12 13)
M  V30 MDLV30/STERAC1 ATOMS=(1 4)
M  V30 END COLLECTION
M  V30 END CTAB
M  END
>  <Molecule Name>


>  <status>
-

>  <cas>
80-49-9

>  <name>
HOMATROPINE METHYLBROMIDE

>  <ID>
35

>  <Smiles>
C[N+](C)([C@H](CC1)C2)[C@@H]1C[C@@H]2OC(C(c1ccccc1)O)=O

$$$$

Actelion Java MolfileCreator 2.0

  0  0  0  0  0  0              0 V3000
M  V30 BEGIN CTAB
M  V30 COUNTS 43 50 0 0 0
M  V30 BEGIN ATOM
M  V30 1 O -4.0826 -1.7024 0.0 0
M  V30 2 C -3.0826 -1.7024 0.0 0
M  V30 3 N -2.5826 -2.5684 0.0 0
M  V30 4 C -2.5826 -0.8364 0.0 0 CFG=1
M  V30 5 C -1.5826 -2.5684 0.0 0 CFG=2
M  V30 6 C -2.8916 -3.5195 0.0 0
M  V30 7 N -1.5826 -0.8364 0.0 0
M  V30 8 C -3.0826 0.0296 0.0 0
M  V30 9 C -1.0826 -1.7024 0.0 0 CFG=1
M  V30 10 C -1.2736 -3.5195 0.0 0
M  V30 11 C -2.0826 -4.1073 0.0 0
M  V30 12 C -0.9135 -0.0932 0.0 0
M  V30 13 C -4.0826 0.0296 0.0 0
M  V30 14 O -0.1045 -1.4945 0.0 0
M  V30 15 O -0.4948 -2.5114 0.0 0
M  V30 16 O -1.1214 0.8848 0.0 0
M  V30 17 C 0.0 -0.5 0.0 0 CFG=1
M  V30 18 C -4.5826 0.8956 0.0 0
M  V30 19 C -4.5826 -0.8364 0.0 0
M  V30 20 N 0.866 0.0 0.0 0
M  V30 21 C 0.8386 -1.0446 0.0 0
M  V30 22 C -5.5826 0.8956 0.0 0
M  V30 23 C -5.5826 -0.8364 0.0 0
M  V30 24 C 1.732 -0.5 0.0 0
M  V30 25 C -6.0826 0.0296 0.0 0
M  V30 26 O 2.598 0.0 0.0 0
M  V30 27 C 1.732 -1.5 0.0 0 CFG=1
M  V30 28 C 0.866 -2.0 0.0 0
M  V30 29 C 2.598 -1.9999 0.0 0
M  V30 30 N 0.866 -3.0 0.0 0
M  V30 31 C 2.598 -2.9999 0.0 0 CFG=1
M  V30 32 C 1.732 -3.5 0.0 0 CFG=1
M  V30 33 C 0.0 -3.5 0.0 0
M  V30 34 C 3.4641 -3.4999 0.0 0
M  V30 35 C 1.732 -4.5 0.0 0
M  V30 36 C 3.4641 -4.4999 0.0 0
M  V30 37 C 4.4253 -3.124 0.0 0
M  V30 38 C 2.598 -4.9999 0.0 0
M  V30 39 C 4.2072 -5.1691 0.0 0
M  V30 40 C 5.2343 -3.7118 0.0 0
M  V30 41 C 2.8059 -5.9781 0.0 0
M  V30 42 N 3.8005 -6.0826 0.0 0
M  V30 43 C 5.1298 -4.7063 0.0 0
M  V30 END ATOM
M  V30 BEGIN BOND
M  V30 1 2 1 2
M  V30 2 1 2 3
M  V30 3 1 4 2
M  V30 4 1 5 3 CFG=3
M  V30 5 1 3 6
M  V30 6 1 4 7
M  V30 7 1 4 8 CFG=3
M  V30 8 1 9 5
M  V30 9 1 5 10
M  V30 10 1 6 11
M  V30 11 1 7 12
M  V30 12 1 8 13
M  V30 13 1 9 14
M  V30 14 1 9 15 CFG=3
M  V30 15 2 12 16
M  V30 16 1 17 12
M  V30 17 2 13 18
M  V30 18 1 13 19
M  V30 19 1 17 20 CFG=3
M  V30 20 1 17 21
M  V30 21 1 18 22
M  V30 22 2 19 23
M  V30 23 1 20 24
M  V30 24 2 22 25
M  V30 25 2 24 26
M  V30 26 1 27 24 CFG=3
M  V30 27 1 27 28
M  V30 28 1 27 29
M  V30 29 1 28 30
M  V30 30 1 31 29 CFG=3
M  V30 31 1 32 30 CFG=1
M  V30 32 1 30 33
M  V30 33 1 31 34
M  V30 34 1 32 35
M  V30 35 2 34 36
M  V30 36 1 34 37
M  V30 37 1 35 38
M  V30 38 1 36 39
M  V30 39 2 37 40
M  V30 40 2 38 41
M  V30 41 1 39 42
M  V30 42 2 39 43
M  V30 43 1 7 9
M  V30 44 1 10 11
M  V30 45 1 14 17
M  V30 46 1 23 25
M  V30 47 1 31 32
M  V30 48 1 36 38
M  V30 49 1 40 43
M  V30 50 1 41 42
M  V30 END BOND
M  V30 BEGIN COLLECTION
M  V30 MDLV30/STERAC1 ATOMS=(7 4 5 9 17 27 31 32)
M  V30 END COLLECTION
M  V30 END CTAB
M  END
>  <Molecule Name>


>  <status>
-

>  <cas>
511-12-6

>  <name>
DIHYDROERGOTAMINE

>  <ID>
36

>  <Smiles>
C[C@@](C(N1[C@@H](Cc2ccccc2)C(N2[C@H]3CCC2)=O)=O)(NC([C@H](C2)CN(C)[C@H](Cc4c[nH]5)[C@H]2c2c4c5ccc2)=O)O[C@@]13O

$$$$

Actelion Java MolfileCreator 2.0

  0  0  0  0  0  0              0 V3000
M  V30 BEGIN CTAB
M  V30 COUNTS 6 5 0 0 0
M  V30 BEGIN ATOM
M  V30 1 S 1.732 -1.5 0.0 0
M  V30 2 C 1.732 -0.5 0.0 0 CFG=2
M  V30 3 C 2.598 0.0 0.0 0
M  V30 4 C 0.866 0.0 0.0 0
M  V30 5 S 3.4641 -0.5 0.0 0
M  V30 6 O 0.0 -0.5 0.0 0
M  V30 END ATOM
M  V30 BEGIN BOND
M  V30 1 1 2 1 CFG=1
M  V30 2 1 2 3
M  V30 3 1 2 4
M  V30 4 1 3 5
M  V30 5 1 4 6
M  V30 END BOND
M  V30 BEGIN COLLECTION
M  V30 MDLV30/STERAC1 ATOMS=(1 2)
M  V30 END COLLECTION
M  V30 END CTAB
M  END
>  <Molecule Name>


>  <status>
-

>  <cas>
59-52-9

>  <name>
DIMERCAPROL

>  <ID>
37

>  <Smiles>
OCC(CS)S

$$$$

Actelion Java MolfileCreator 2.0

  0  0  0  0  0  0              0 V3000
M  V30 BEGIN CTAB
M  V30 COUNTS 22 23 0 0 0
M  V30 BEGIN ATOM
M  V30 1 Cl 10.3923 -6.75 0.0 0
M  V30 2 C 10.3923 -5.25 0.0 0
M  V30 3 C 11.6913 -4.5 0.0 0
M  V30 4 C 9.0932 -4.4999 0.0 0
M  V30 5 C 11.6913 -3.0 0.0 0
M  V30 6 C 9.0932 -2.9999 0.0 0
M  V30 7 N 12.9903 -2.25 0.0 0
M  V30 8 C 10.3923 -2.2499 0.0 0
M  V30 9 C 12.9903 -0.75 0.0 0
M  V30 10 C 10.3923 -0.75 0.0 0
M  V30 11 C 11.6913 0.0 0.0 0
M  V30 12 N 9.0932 0.0 0.0 0
M  V30 13 C 7.7942 -0.75 0.0 0 CFG=2
M  V30 14 C 6.4951 0.0 0.0 0
M  V30 15 C 7.7942 -2.25 0.0 0
M  V30 16 C 5.1961 -0.75 0.0 0
M  V30 17 C 3.8971 0.0 0.0 0
M  V30 18 N 2.598 -0.75 0.0 0
M  V30 19 C 2.598 -2.25 0.0 0
M  V30 20 C 1.299 0.0 0.0 0
M  V30 21 C 3.8971 -3.0 0.0 0
M  V30 22 C 0.0 -0.75 0.0 0
M  V30 END ATOM
M  V30 BEGIN BOND
M  V30 1 1 1 2
M  V30 2 2 2 3
M  V30 3 1 2 4
M  V30 4 1 3 5
M  V30 5 2 4 6
M  V30 6 2 5 7
M  V30 7 1 5 8
M  V30 8 1 7 9
M  V30 9 2 8 10
M  V30 10 2 9 11
M  V30 11 1 10 12
M  V30 12 1 13 12 CFG=1
M  V30 13 1 13 14
M  V30 14 1 13 15
M  V30 15 1 14 16
M  V30 16 1 16 17
M  V30 17 1 17 18
M  V30 18 1 18 19
M  V30 19 1 18 20
M  V30 20 1 19 21
M  V30 21 1 20 22
M  V30 22 1 6 8
M  V30 23 1 10 11
M  V30 END BOND
M  V30 BEGIN COLLECTION
M  V30 MDLV30/STERAC1 ATOMS=(1 13)
M  V30 END COLLECTION
M  V30 END CTAB
M  END
>  <Molecule Name>


>  <status>
-

>  <cas>
54-05-7

>  <name>
CHLOROQUINE

>  <ID>
38

>  <Smiles>
CCN(CC)CCCC(C)Nc1c(ccc(Cl)c2)c2ncc1

$$$$

Actelion Java MolfileCreator 2.0

  0  0  0  0  0  0              0 V3000
M  V30 BEGIN CTAB
M  V30 COUNTS 16 17 0 0 0
M  V30 BEGIN ATOM
M  V30 1 O -3.8847 -1.1032 0.0 0
M  V30 2 C -2.3856 -1.2607 0.0 0
M  V30 3 N -1.6319 -2.5661 0.0 0
M  V30 4 N -1.377 -0.1405 0.0 0
M  V30 5 C -0.1575 -2.2527 0.0 0
M  V30 6 C -2.245 -3.9432 0.0 0
M  V30 7 C 0.0 -0.7536 0.0 0 CFG=1
M  V30 8 O 0.7818 -3.4087 0.0 0
M  V30 9 C 1.2641 -1.5746 0.0 0
M  V30 10 C 1.3054 0.0 0.0 0
M  V30 11 C 1.2756 -3.0062 0.0 0
M  V30 12 C 2.6072 -0.8903 0.0 0
M  V30 13 C 1.3054 1.5073 0.0 0
M  V30 14 C 2.4494 -3.9008 0.0 0
M  V30 15 C 3.8714 -1.7112 0.0 0
M  V30 16 C 3.7925 -3.2165 0.0 0
M  V30 END ATOM
M  V30 BEGIN BOND
M  V30 1 2 1 2
M  V30 2 1 2 3
M  V30 3 1 2 4
M  V30 4 1 3 5
M  V30 5 1 3 6
M  V30 6 1 7 4
M  V30 7 2 5 8
M  V30 8 1 7 9
M  V30 9 1 7 10 CFG=1
M  V30 10 2 9 11
M  V30 11 1 9 12
M  V30 12 1 10 13
M  V30 13 1 11 14
M  V30 14 2 12 15
M  V30 15 2 14 16
M  V30 16 1 5 7
M  V30 17 1 15 16
M  V30 END BOND
M  V30 BEGIN COLLECTION
M  V30 MDLV30/STERAC1 ATOMS=(1 7)
M  V30 END COLLECTION
M  V30 END CTAB
M  END
>  <Molecule Name>


>  <status>
DISCONTINUED

>  <cas>
50-12-4

>  <name>
MEPHENYTOIN

>  <ID>
39

>  <Smiles>
CCC(C(N1C)=O)(c2ccccc2)NC1=O

$$$$

Actelion Java MolfileCreator 2.0

  0  0  0  0  0  0              0 V3000
M  V30 BEGIN CTAB
M  V30 COUNTS 25 28 0 0 0
M  V30 BEGIN ATOM
M  V30 1 O 2.598 0.0 0.0 0
M  V30 2 C 3.4641 -0.5 0.0 0
M  V30 3 N 4.3301 0.0 0.0 0
M  V30 4 C 3.4641 -1.5 0.0 0 CFG=1
M  V30 5 C 5.1961 -0.4999 0.0 0 CFG=1
M  V30 6 C 2.598 -1.9999 0.0 0
M  V30 7 C 4.3301 -1.9999 0.0 0
M  V30 8 C 5.1961 -1.5 0.0 0
M  V30 9 C 6.0621 0.0 0.0 0
M  V30 10 C 2.598 -3.0 0.0 0
M  V30 11 N 4.3301 -3.0 0.0 0
M  V30 12 O 6.0621 -1.9999 0.0 0
M  V30 13 C 6.9282 -0.5 0.0 0
M  V30 14 C 1.732 -3.4999 0.0 0
M  V30 15 C 3.4641 -3.5 0.0 0 CFG=1
M  V30 16 C 5.1961 -3.5 0.0 0
M  V30 17 C 1.732 -4.5 0.0 0
M  V30 18 C 0.7707 -3.124 0.0 0
M  V30 19 C 3.4641 -4.5 0.0 0
M  V30 20 C 0.9889 -5.1691 0.0 0
M  V30 21 C 2.598 -4.9999 0.0 0
M  V30 22 C -0.0382 -3.7118 0.0 0
M  V30 23 N 1.3956 -6.0826 0.0 0
M  V30 24 C 0.0662 -4.7063 0.0 0
M  V30 25 C 2.3901 -5.9781 0.0 0
M  V30 END ATOM
M  V30 BEGIN BOND
M  V30 1 2 1 2
M  V30 2 1 2 3
M  V30 3 1 4 2 CFG=3
M  V30 4 1 5 3 CFG=3
M  V30 5 1 4 6
M  V30 6 1 4 7
M  V30 7 1 5 8
M  V30 8 1 5 9
M  V30 9 2 6 10
M  V30 10 1 7 11
M  V30 11 1 8 12
M  V30 12 1 9 13
M  V30 13 1 10 14
M  V30 14 1 15 10
M  V30 15 1 11 16
M  V30 16 2 14 17
M  V30 17 1 14 18
M  V30 18 1 15 19
M  V30 19 1 17 20
M  V30 20 1 17 21
M  V30 21 2 18 22
M  V30 22 1 20 23
M  V30 23 2 20 24
M  V30 24 2 21 25
M  V30 25 1 15 11 CFG=1
M  V30 26 1 19 21
M  V30 27 1 22 24
M  V30 28 1 23 25
M  V30 END BOND
M  V30 BEGIN COLLECTION
M  V30 MDLV30/STERAC1 ATOMS=(3 4 5 15)
M  V30 END COLLECTION
M  V30 END CTAB
M  END
>  <Molecule Name>


>  <status>
-

>  <cas>
113-42-8

>  <name>
METHYLERGONOVINE

>  <ID>
40

>  <Smiles>
CC[C@H](CO)NC([C@H](CN(C)[C@H]1Cc2c[nH]3)C=C1c1c2c3ccc1)=O

$$$$

Actelion Java MolfileCreator 2.0

  0  0  0  0  0  0              0 V3000
M  V30 BEGIN CTAB
M  V30 COUNTS 25 26 0 0 0
M  V30 BEGIN ATOM
M  V30 1 S 9.0932 -3.0 0.0 0
M  V30 2 O 8.3432 -4.299 0.0 0
M  V30 3 O 9.8432 -4.299 0.0 0
M  V30 4 C 7.7942 -2.25 0.0 0
M  V30 5 C 10.3923 -2.25 0.0 0
M  V30 6 C 7.7942 -0.75 0.0 0
M  V30 7 C 6.4952 -3.0 0.0 0
M  V30 8 C 11.6913 -3.0 0.0 0
M  V30 9 C 10.3923 -0.75 0.0 0
M  V30 10 C 6.4952 0.0 0.0 0
M  V30 11 C 5.1961 -2.25 0.0 0
M  V30 12 C 12.9904 -2.25 0.0 0
M  V30 13 C 11.6913 0.0 0.0 0
M  V30 14 C 5.1961 -0.75 0.0 0
M  V30 15 C 12.9904 -0.75 0.0 0
M  V30 16 N 3.8971 0.0 0.0 0
M  V30 17 N 14.2894 0.0 0.0 0
M  V30 18 C 2.598 -0.75 0.0 0
M  V30 19 C 14.2894 1.5 0.0 0
M  V30 20 S 1.299 0.0 0.0 0 CFG=2
M  V30 21 S 15.5884 2.25 0.0 0 CFG=2
M  V30 22 O 1.299 1.5 0.0 0
M  V30 23 O 0.0 -0.75 0.0 0
M  V30 24 O 16.8875 1.5 0.0 0
M  V30 25 O 15.5884 3.75 0.0 0
M  V30 END ATOM
M  V30 BEGIN BOND
M  V30 1 2 1 2
M  V30 2 2 1 3
M  V30 3 1 1 4
M  V30 4 1 1 5
M  V30 5 2 4 6
M  V30 6 1 4 7
M  V30 7 2 5 8
M  V30 8 1 5 9
M  V30 9 1 6 10
M  V30 10 2 7 11
M  V30 11 1 8 12
M  V30 12 2 9 13
M  V30 13 2 10 14
M  V30 14 2 12 15
M  V30 15 1 14 16
M  V30 16 1 15 17
M  V30 17 1 16 18
M  V30 18 1 17 19
M  V30 19 1 20 18
M  V30 20 1 21 19
M  V30 21 2 20 22
M  V30 22 1 20 23 CFG=1
M  V30 23 2 21 24
M  V30 24 1 21 25 CFG=1
M  V30 25 1 11 14
M  V30 26 1 13 15
M  V30 END BOND
M  V30 BEGIN COLLECTION
M  V30 MDLV30/STERAC1 ATOMS=(2 20 21)
M  V30 END COLLECTION
M  V30 END CTAB
M  END
>  <Molecule Name>


>  <status>
DISCONTINUED

>  <cas>
144-76-3

>  <name>
SULFOXONE

>  <ID>
41

>  <Smiles>
O[S@](CNc(cc1)ccc1S(c(cc1)ccc1NC[S@@](O)=O)(=O)=O)=O

$$$$

Actelion Java MolfileCreator 2.0

  0  0  0  0  0  0              0 V3000
M  V30 BEGIN CTAB
M  V30 COUNTS 12 12 0 0 0
M  V30 BEGIN ATOM
M  V30 1 O 4.0874 2.1159 0.0 0
M  V30 2 C 3.6807 1.2024 0.0 0
M  V30 3 O 2.7026 0.9945 0.0 0
M  V30 4 C 4.1807 0.3364 0.0 0
M  V30 5 C 2.598 0.0 0.0 0 CFG=2
M  V30 6 O 5.1752 0.2318 0.0 0
M  V30 7 C 3.5116 -0.4067 0.0 0
M  V30 8 C 1.732 -0.5 0.0 0 CFG=2
M  V30 9 O 3.7195 -1.3848 0.0 0
M  V30 10 O 1.732 -1.5 0.0 0
M  V30 11 C 0.866 0.0 0.0 0
M  V30 12 O 0.0 -0.5 0.0 0
M  V30 END ATOM
M  V30 BEGIN BOND
M  V30 1 2 1 2
M  V30 2 1 2 3
M  V30 3 1 2 4
M  V30 4 1 5 3 CFG=3
M  V30 5 1 4 6
M  V30 6 2 4 7
M  V30 7 1 8 5
M  V30 8 1 7 9
M  V30 9 1 8 10 CFG=3
M  V30 10 1 8 11
M  V30 11 1 11 12
M  V30 12 1 5 7
M  V30 END BOND
M  V30 BEGIN COLLECTION
M  V30 MDLV30/STERAC1 ATOMS=(2 5 8)
M  V30 END COLLECTION
M  V30 END CTAB
M  END
>  <Molecule Name>


>  <status>
-

>  <cas>
50-81-7

>  <name>
ASCORBIC ACID

>  <ID>
42

>  <Smiles>
OC[C@H]([C@@H](C(O)=C1O)OC1=O)O

$$$$

Actelion Java MolfileCreator 2.0

  0  0  0  0  0  0              0 V3000
M  V30 BEGIN CTAB
M  V30 COUNTS 16 17 0 0 0
M  V30 BEGIN ATOM
M  V30 1 S 6.1096 -0.0932 0.0 0
M  V30 2 C 5.1961 -0.5 0.0 0 CFG=1
M  V30 3 C 6.7788 -0.8364 0.0 0
M  V30 4 C 5.3006 -1.4945 0.0 0 CFG=1
M  V30 5 C 4.3301 0.0 0.0 0
M  V30 6 C 6.2788 -1.7024 0.0 0 CFG=2
M  V30 7 N 4.8006 -2.3605 0.0 0
M  V30 8 C 3.4641 -0.5 0.0 0
M  V30 9 N 6.3833 -2.6969 0.0 0
M  V30 10 C 5.4698 -3.1036 0.0 0
M  V30 11 C 2.598 0.0 0.0 0
M  V30 12 O 5.2618 -4.0818 0.0 0
M  V30 13 C 1.732 -0.5 0.0 0
M  V30 14 C 0.866 0.0 0.0 0
M  V30 15 O 0.866 1.0 0.0 0
M  V30 16 O 0.0 -0.5 0.0 0 CHG=-1
M  V30 END ATOM
M  V30 BEGIN BOND
M  V30 1 1 2 1
M  V30 2 1 1 3
M  V30 3 1 4 2
M  V30 4 1 2 5 CFG=1
M  V30 5 1 6 3
M  V30 6 1 4 7 CFG=1
M  V30 7 1 5 8
M  V30 8 1 6 9 CFG=1
M  V30 9 1 7 10
M  V30 10 1 8 11
M  V30 11 2 10 12
M  V30 12 1 11 13
M  V30 13 1 13 14
M  V30 14 2 14 15
M  V30 15 1 14 16
M  V30 16 1 4 6
M  V30 17 1 9 10
M  V30 END BOND
M  V30 BEGIN COLLECTION
M  V30 MDLV30/STERAC1 ATOMS=(3 2 4 6)
M  V30 END COLLECTION
M  V30 END CTAB
M  END
>  <Molecule Name>


>  <status>
-

>  <cas>
58-85-5

>  <name>
BIOTIN

>  <ID>
43

>  <Smiles>
[O-]C(CCCC[C@H]([C@@H]1N2)SC[C@H]1NC2=O)=O

$$$$

Actelion Java MolfileCreator 2.0

  0  0  0  0  0  0              0 V3000
M  V30 BEGIN CTAB
M  V30 COUNTS 35 39 0 0 0
M  V30 BEGIN ATOM
M  V30 1 Cl -0.0916 -3.9138 0.0 0
M  V30 2 C -0.7225 -3.3966 0.0 0 CFG=2
M  V30 3 C -1.0315 -4.3476 0.0 0 CFG=2
M  V30 4 C 0.2555 -3.1887 0.0 0 CFG=1
M  V30 5 C -1.3916 -2.6534 0.0 0 CFG=2
M  V30 6 C -2.0097 -4.5556 0.0 0
M  V30 7 C -0.3624 -5.0908 0.0 0
M  V30 8 C 0.1965 -4.1397 0.0 0
M  V30 9 O 0.9247 -3.9318 0.0 0
M  V30 10 C 0.526 -2.2714 0.0 0
M  V30 11 C -1.0826 -1.7024 0.0 0 CFG=1
M  V30 12 C -2.3698 -2.8614 0.0 0
M  V30 13 C -2.3187 -5.5066 0.0 0
M  V30 14 C -2.6788 -3.8124 0.0 0
M  V30 15 C -0.6714 -6.0418 0.0 0
M  V30 16 C -0.1045 -1.4945 0.0 0 CFG=1
M  V30 17 C -1.5826 -0.8364 0.0 0
M  V30 18 C -1.6496 -6.2498 0.0 0
M  V30 19 C 0.0 -0.5 0.0 0 CFG=1
M  V30 20 C 0.9358 -1.3027 0.0 0
M  V30 21 C -0.9135 -0.0932 0.0 0 CFG=2
M  V30 22 O -1.9586 -7.2008 0.0 0
M  V30 23 O 0.866 0.0 0.0 0
M  V30 24 C 0.8179 -0.9322 0.0 0
M  V30 25 C -1.1214 0.8848 0.0 0
M  V30 26 C 0.866 1.0 0.0 0
M  V30 27 O 0.8634 -1.9756 0.0 0
M  V30 28 C 1.7296 -0.5906 0.0 0
M  V30 29 O 0.0 1.4999 0.0 0
M  V30 30 C 1.732 1.5 0.0 0
M  V30 31 Cl 2.5683 -1.1352 0.0 0
M  V30 32 O 2.6455 1.0932 0.0 0
M  V30 33 C 1.8365 2.4945 0.0 0
M  V30 34 C 3.3147 1.8364 0.0 0
M  V30 35 C 2.8147 2.7024 0.0 0
M  V30 END ATOM
M  V30 BEGIN BOND
M  V30 1 1 2 1 CFG=1
M  V30 2 1 3 2
M  V30 3 1 4 2
M  V30 4 1 5 2
M  V30 5 1 3 6
M  V30 6 1 3 7
M  V30 7 1 3 8 CFG=3
M  V30 8 1 4 9 CFG=3
M  V30 9 1 4 10
M  V30 10 1 11 5
M  V30 11 1 5 12 CFG=1
M  V30 12 2 6 13
M  V30 13 1 6 14
M  V30 14 2 7 15
M  V30 15 1 16 10
M  V30 16 1 11 17 CFG=3
M  V30 17 1 13 18
M  V30 18 1 19 16
M  V30 19 1 16 20 CFG=3
M  V30 20 1 21 17
M  V30 21 2 18 22
M  V30 22 1 19 23
M  V30 23 1 19 24 CFG=3
M  V30 24 1 21 25 CFG=1
M  V30 25 1 23 26
M  V30 26 2 24 27
M  V30 27 1 24 28
M  V30 28 2 26 29
M  V30 29 1 26 30
M  V30 30 1 28 31
M  V30 31 1 30 32
M  V30 32 2 30 33
M  V30 33 1 32 34
M  V30 34 1 33 35
M  V30 35 1 11 16
M  V30 36 1 12 14
M  V30 37 1 15 18
M  V30 38 1 19 21
M  V30 39 2 34 35
M  V30 END BOND
M  V30 BEGIN COLLECTION
M  V30 MDLV30/STERAC1 ATOMS=(8 2 3 4 5 11 16 19 21)
M  V30 END COLLECTION
M  V30 END CTAB
M  END
>  <Molecule Name>


>  <status>
-

>  <cas>
83919-23-7

>  <name>
MOMETASONE FUROATE

>  <ID>
44

>  <Smiles>
C[C@H](C[C@@H]([C@H](CCC([C@]1(C)C=C2)=CC2=O)[C@@]11Cl)[C@]2(C)C[C@@H]1O)[C@@]2(C(CCl)=O)OC(c1ccco1)=O

$$$$
_c001
Actelion Java MolfileCreator 2.0

  0  0  0  0  0  0              0 V3000
M  V30 BEGIN CTAB
M  V30 COUNTS 9 9 0 0 0
M  V30 BEGIN ATOM
M  V30 1 O 2.598 -0.75 0.0 0
M  V30 2 C 1.299 0.0 0.0 0
M  V30 3 N 1.299 1.5 0.0 0
M  V30 4 C 0.0 -0.75 0.0 0
M  V30 5 C -1.299 0.0 0.0 0
M  V30 6 C 0.0 -2.25 0.0 0
M  V30 7 N -2.598 -0.7499 0.0 0
M  V30 8 C -1.299 -2.9999 0.0 0
M  V30 9 C -2.598 -2.2499 0.0 0
M  V30 END ATOM
M  V30 BEGIN BOND
M  V30 1 2 1 2
M  V30 2 1 2 3
M  V30 3 1 2 4
M  V30 4 2 4 5
M  V30 5 1 4 6
M  V30 6 1 5 7
M  V30 7 2 6 8
M  V30 8 2 7 9
M  V30 9 1 8 9
M  V30 END BOND
M  V30 END CTAB
M  END
>  <Molecule Name>
_c001

>  <status>
-

>  <cas>
98-92-0

>  <name>
NIACINAMIDE

>  <ID>
45

>  <Smiles>
NC(c1cnccc1)=O

$$$$

Actelion Java MolfileCreator 2.0

  0  0  0  0  0  0              0 V3000
M  V30 BEGIN CTAB
M  V30 COUNTS 12 12 0 0 0
M  V30 BEGIN ATOM
M  V30 1 O 2.598 1.0 0.0 0
M  V30 2 C 2.598 0.0 0.0 0
M  V30 3 C 1.732 -0.5 0.0 0
M  V30 4 C 3.4641 -0.4999 0.0 0
M  V30 5 C 1.732 -1.5 0.0 0
M  V30 6 C 0.866 0.0 0.0 0
M  V30 7 N 3.4641 -1.4999 0.0 0
M  V30 8 C 4.3301 0.0 0.0 0
M  V30 9 C 2.598 -1.9999 0.0 0
M  V30 10 C 0.866 -2.0 0.0 0
M  V30 11 O 0.0 -0.5 0.0 0
M  V30 12 O 0.866 -3.0 0.0 0
M  V30 END ATOM
M  V30 BEGIN BOND
M  V30 1 1 1 2
M  V30 2 2 2 3
M  V30 3 1 2 4
M  V30 4 1 3 5
M  V30 5 1 3 6
M  V30 6 2 4 7
M  V30 7 1 4 8
M  V30 8 2 5 9
M  V30 9 1 5 10
M  V30 10 1 6 11
M  V30 11 1 10 12
M  V30 12 1 7 9
M  V30 END BOND
M  V30 END CTAB
M  END
>  <Molecule Name>


>  <status>
-

>  <cas>
65-23-6

>  <name>
PYRIDOXINE

>  <ID>
46

>  <Smiles>
Cc1ncc(CO)c(CO)c1O

$$$$
_c001
Actelion Java MolfileCreator 2.0

  0  0  0  0  0  0              0 V3000
M  V30 BEGIN CTAB
M  V30 COUNTS 18 19 0 0 0
M  V30 BEGIN ATOM
M  V30 1 S 2.7026 0.9945 0.0 0
M  V30 2 C 2.598 0.0 0.0 0
M  V30 3 C 3.6807 1.2024 0.0 0
M  V30 4 C 3.5116 -0.4067 0.0 0
M  V30 5 C 1.732 -0.5 0.0 0
M  V30 6 N 4.1807 0.3364 0.0 0 CHG=1
M  V30 7 C 3.7195 -1.3848 0.0 0
M  V30 8 C 0.866 0.0 0.0 0
M  V30 9 C 5.1752 0.2318 0.0 0
M  V30 10 O 0.0 -0.5 0.0 0
M  V30 11 C 5.763 1.0408 0.0 0
M  V30 12 C 6.7575 0.9363 0.0 0
M  V30 13 C 5.3563 1.9544 0.0 0
M  V30 14 N 7.3453 1.7453 0.0 0
M  V30 15 N 7.1643 0.0228 0.0 0
M  V30 16 N 5.9441 2.7634 0.0 0
M  V30 17 C 6.9386 2.6589 0.0 0
M  V30 18 C 7.5264 3.4679 0.0 0
M  V30 END ATOM
M  V30 BEGIN BOND
M  V30 1 1 1 2
M  V30 2 1 1 3
M  V30 3 2 2 4
M  V30 4 1 2 5
M  V30 5 2 3 6
M  V30 6 1 4 7
M  V30 7 1 5 8
M  V30 8 1 6 9
M  V30 9 1 8 10
M  V30 10 1 9 11
M  V30 11 2 11 12
M  V30 12 1 11 13
M  V30 13 1 12 14
M  V30 14 1 12 15
M  V30 15 2 13 16
M  V30 16 2 14 17
M  V30 17 1 17 18
M  V30 18 1 4 6
M  V30 19 1 16 17
M  V30 END BOND
M  V30 END CTAB
M  END
>  <Molecule Name>
_c001

>  <status>
-

>  <cas>
59-43-8

>  <name>
THIAMINE

>  <ID>
47

>  <Smiles>
Cc1c(CCO)sc[n+]1Cc1c(N)nc(C)nc1

$$$$

Actelion Java MolfileCreator 2.0

  0  0  0  0  0  0              0 V3000
M  V30 BEGIN CTAB
M  V30 COUNTS 31 32 0 0 0
M  V30 BEGIN ATOM
M  V30 1 O -1.299 0.0 0.0 0
M  V30 2 C -2.598 -0.7499 0.0 0
M  V30 3 C 0.0 -0.75 0.0 0 CFG=2
M  V30 4 C -2.598 -2.2499 0.0 0
M  V30 5 C -3.8971 0.0 0.0 0
M  V30 6 C 0.0 -2.25 0.0 0
M  V30 7 C 1.299 0.0 0.0 0
M  V30 8 C 1.299 -1.5 0.0 0
M  V30 9 C -3.8971 -2.9999 0.0 0
M  V30 10 C -1.299 -2.9999 0.0 0
M  V30 11 C -5.1961 -0.7499 0.0 0
M  V30 12 C -3.8971 1.5 0.0 0
M  V30 13 C 2.598 -0.75 0.0 0
M  V30 14 C -5.1961 -2.2499 0.0 0
M  V30 15 C -3.8971 -4.4999 0.0 0
M  V30 16 C -6.4951 0.0 0.0 0
M  V30 17 C 3.8971 0.0 0.0 0
M  V30 18 O -6.4951 -2.9999 0.0 0
M  V30 19 C 5.1961 -0.75 0.0 0 CFG=2
M  V30 20 C 6.4951 0.0 0.0 0
M  V30 21 C 5.1961 -2.25 0.0 0
M  V30 22 C 7.7942 -0.75 0.0 0
M  V30 23 C 9.0932 0.0 0.0 0
M  V30 24 C 10.3923 -0.75 0.0 0 CFG=2
M  V30 25 C 11.6913 0.0 0.0 0
M  V30 26 C 10.3923 -2.25 0.0 0
M  V30 27 C 12.9903 -0.75 0.0 0
M  V30 28 C 14.2894 0.0 0.0 0
M  V30 29 C 15.5884 -0.75 0.0 0
M  V30 30 C 16.8874 0.0 0.0 0
M  V30 31 C 15.5884 -2.25 0.0 0
M  V30 END ATOM
M  V30 BEGIN BOND
M  V30 1 1 1 2
M  V30 2 1 3 1
M  V30 3 2 2 4
M  V30 4 1 2 5
M  V30 5 1 3 6
M  V30 6 1 3 7
M  V30 7 1 3 8 CFG=3
M  V30 8 1 4 9
M  V30 9 1 4 10
M  V30 10 2 5 11
M  V30 11 1 5 12
M  V30 12 1 7 13
M  V30 13 2 9 14
M  V30 14 1 9 15
M  V30 15 1 11 16
M  V30 16 1 13 17
M  V30 17 1 14 18
M  V30 18 1 19 17
M  V30 19 1 19 20
M  V30 20 1 19 21 CFG=3
M  V30 21 1 20 22
M  V30 22 1 22 23
M  V30 23 1 24 23
M  V30 24 1 24 25
M  V30 25 1 24 26 CFG=3
M  V30 26 1 25 27
M  V30 27 1 27 28
M  V30 28 1 28 29
M  V30 29 1 29 30
M  V30 30 1 29 31
M  V30 31 1 6 10
M  V30 32 1 11 14
M  V30 END BOND
M  V30 BEGIN COLLECTION
M  V30 MDLV30/STERAC1 ATOMS=(3 3 19 24)
M  V30 END COLLECTION
M  V30 END CTAB
M  END
>  <Molecule Name>


>  <status>
-

>  <cas>
59-02-9

>  <name>
ALPHA-TOCOPHEROL

>  <ID>
48

>  <Smiles>
CC(C)CCC[C@H](C)CCC[C@H](C)CCC[C@@](C)(CC1)Oc(c(C)c2C)c1c(C)c2O

$$$$

Actelion Java MolfileCreator 2.0

  0  0  0  0  0  0              0 V3000
M  V30 BEGIN CTAB
M  V30 COUNTS 20 21 0 0 0
M  V30 BEGIN ATOM
M  V30 1 O 2.598 4.0 0.0 0
M  V30 2 C 2.598 3.0 0.0 0
M  V30 3 C 1.732 2.5 0.0 0
M  V30 4 C 3.4641 2.5 0.0 0
M  V30 5 C 1.732 1.4999 0.0 0
M  V30 6 C 3.4641 1.5 0.0 0
M  V30 7 C 2.598 1.0 0.0 0
M  V30 8 C 2.598 0.0 0.0 0
M  V30 9 C 1.732 -0.5 0.0 0
M  V30 10 C 3.4641 -0.5 0.0 0
M  V30 11 C 1.732 -1.5 0.0 0
M  V30 12 C 0.866 0.0 0.0 0
M  V30 13 C 4.3301 0.0 0.0 0
M  V30 14 C 0.866 -1.9999 0.0 0
M  V30 15 C 2.598 -2.0 0.0 0
M  V30 16 C 0.0 -0.5 0.0 0
M  V30 17 C 0.866 -2.9999 0.0 0
M  V30 18 C 2.598 -3.0 0.0 0
M  V30 19 C 1.732 -3.5 0.0 0
M  V30 20 O 1.732 -4.5 0.0 0
M  V30 END ATOM
M  V30 BEGIN BOND
M  V30 1 1 1 2
M  V30 2 2 2 3
M  V30 3 1 2 4
M  V30 4 1 3 5
M  V30 5 2 4 6
M  V30 6 2 5 7
M  V30 7 1 7 8
M  V30 8 1 8 9
M  V30 9 2 8 10
M  V30 10 1 9 11
M  V30 11 2 9 12
M  V30 12 1 10 13
M  V30 13 2 11 14
M  V30 14 1 11 15
M  V30 15 1 12 16
M  V30 16 1 14 17
M  V30 17 2 15 18
M  V30 18 2 17 19
M  V30 19 1 19 20
M  V30 20 1 6 7
M  V30 21 1 18 19
M  V30 END BOND
M  V30 END CTAB
M  END
>  <Molecule Name>


>  <status>
DISCONTINUED

>  <cas>
84-17-3

>  <name>
DIENESTROL

>  <ID>
49

>  <Smiles>
C/C=C(/C(/c(cc1)ccc1O)=C/C)\c(cc1)ccc1O

$$$$

Actelion Java MolfileCreator 2.0

  0  0  0  0  0  0              0 V3000
M  V30 BEGIN CTAB
M  V30 COUNTS 23 24 0 0 0
M  V30 BEGIN ATOM
M  V30 1 O 6.876 1.3132 0.0 0
M  V30 2 C 6.5551 0.0 0.0 0
M  V30 3 C 5.2441 -0.7569 0.0 0
M  V30 4 C 7.8661 -0.7569 0.0 0
M  V30 5 C 5.2441 -2.2707 0.0 0
M  V30 6 C 5.2441 0.7569 0.0 0
M  V30 7 C 3.933 0.0 0.0 0
M  V30 8 C 9.1771 0.0 0.0 0
M  V30 9 C 3.933 -3.0276 0.0 0
M  V30 10 C 6.5551 -3.0276 0.0 0
M  V30 11 C 6.3946 1.6141 0.0 0
M  V30 12 C 3.933 1.5138 0.0 0
M  V30 13 C 2.622 -0.7569 0.0 0 CFG=1
M  V30 14 C 3.933 -4.5415 0.0 0
M  V30 15 C 6.5551 -4.5415 0.0 0
M  V30 16 C 6.5551 3.0276 0.0 0
M  V30 17 C 3.933 3.0276 0.0 0
M  V30 18 N 1.311 0.0 0.0 0
M  V30 19 C 2.622 -2.2707 0.0 0
M  V30 20 C 5.2441 -5.2984 0.0 0
M  V30 21 C 5.2441 3.7846 0.0 0
M  V30 22 C 1.311 1.5138 0.0 0
M  V30 23 C 0.0 -0.7569 0.0 0
M  V30 END ATOM
M  V30 BEGIN BOND
M  V30 1 2 1 2
M  V30 2 1 2 3
M  V30 3 1 2 4
M  V30 4 1 3 5
M  V30 5 1 3 6
M  V30 6 1 3 7
M  V30 7 1 4 8
M  V30 8 2 5 9
M  V30 9 1 5 10
M  V30 10 2 6 11
M  V30 11 1 6 12
M  V30 12 1 13 7
M  V30 13 1 9 14
M  V30 14 2 10 15
M  V30 15 1 11 16
M  V30 16 2 12 17
M  V30 17 1 13 18 CFG=3
M  V30 18 1 13 19
M  V30 19 2 14 20
M  V30 20 2 16 21
M  V30 21 1 18 22
M  V30 22 1 18 23
M  V30 23 1 15 20
M  V30 24 1 17 21
M  V30 END BOND
M  V30 BEGIN COLLECTION
M  V30 MDLV30/STERAC1 ATOMS=(1 13)
M  V30 END COLLECTION
M  V30 END CTAB
M  END
>  <Molecule Name>


>  <status>
-

>  <cas>
76-99-3

>  <name>
METHADONE

>  <ID>
50

>  <Smiles>
CCC(C(CC(C)N(C)C)(c1ccccc1)c1ccccc1)=O

$$$$

Actelion Java MolfileCreator 2.0

  0  0  0  0  0  0              0 V3000
M  V30 BEGIN CTAB
M  V30 COUNTS 11 11 0 0 0
M  V30 BEGIN ATOM
M  V30 1 S 5.1961 -0.5 0.0 0
M  V30 2 C 4.3301 0.0 0.0 0
M  V30 3 N 4.3301 1.0 0.0 0
M  V30 4 N 3.4641 -0.4999 0.0 0
M  V30 5 C 3.4641 1.5 0.0 0
M  V30 6 C 2.598 0.0 0.0 0
M  V30 7 O 3.4641 2.5 0.0 0
M  V30 8 C 2.598 1.0 0.0 0
M  V30 9 C 1.732 -0.5 0.0 0
M  V30 10 C 0.866 0.0 0.0 0
M  V30 11 C 0.0 -0.5 0.0 0
M  V30 END ATOM
M  V30 BEGIN BOND
M  V30 1 2 1 2
M  V30 2 1 2 3
M  V30 3 1 2 4
M  V30 4 1 3 5
M  V30 5 1 4 6
M  V30 6 2 5 7
M  V30 7 1 5 8
M  V30 8 1 6 9
M  V30 9 1 9 10
M  V30 10 1 10 11
M  V30 11 2 6 8
M  V30 END BOND
M  V30 END CTAB
M  END
>  <Molecule Name>


>  <status>
-

>  <cas>
51-52-5

>  <name>
PROPYLTHIOURACIL

>  <ID>
51

>  <Smiles>
CCCC(NC(N1)=S)=CC1=O

$$$$

Actelion Java MolfileCreator 2.0

  0  0  0  0  0  0              0 V3000
M  V30 BEGIN CTAB
M  V30 COUNTS 25 26 0 0 0
M  V30 BEGIN ATOM
M  V30 1 O 4.3301 0.0 0.0 0
M  V30 2 C 5.1961 -0.5 0.0 0
M  V30 3 N 6.0621 0.0 0.0 0
M  V30 4 C 5.1961 -1.4999 0.0 0
M  V30 5 C 6.9282 -0.5 0.0 0
M  V30 6 C 4.3301 -1.9999 0.0 0
M  V30 7 C 6.0621 -2.0 0.0 0
M  V30 8 C 7.7942 0.0 0.0 0
M  V30 9 C 4.3301 -2.9999 0.0 0
M  V30 10 C 3.4641 -1.4999 0.0 0
M  V30 11 C 6.0621 -3.0 0.0 0
M  V30 12 N 8.6602 -0.5 0.0 0
M  V30 13 N 5.1961 -3.5 0.0 0
M  V30 14 C 3.4641 -3.4999 0.0 0
M  V30 15 C 2.598 -1.9999 0.0 0
M  V30 16 O 6.9282 -3.5 0.0 0
M  V30 17 C 8.6602 -1.5 0.0 0
M  V30 18 C 9.5262 0.0 0.0 0
M  V30 19 C 2.598 -2.9999 0.0 0
M  V30 20 C 6.9282 -4.5 0.0 0
M  V30 21 C 7.7942 -2.0 0.0 0
M  V30 22 C 10.3923 -0.5 0.0 0
M  V30 23 C 7.7942 -5.0 0.0 0
M  V30 24 C 7.7942 -6.0 0.0 0
M  V30 25 C 8.6602 -6.5 0.0 0
M  V30 END ATOM
M  V30 BEGIN BOND
M  V30 1 2 1 2
M  V30 2 1 2 3
M  V30 3 1 2 4
M  V30 4 1 3 5
M  V30 5 1 4 6
M  V30 6 2 4 7
M  V30 7 1 5 8
M  V30 8 1 6 9
M  V30 9 2 6 10
M  V30 10 1 7 11
M  V30 11 1 8 12
M  V30 12 1 9 13
M  V30 13 2 9 14
M  V30 14 1 10 15
M  V30 15 1 11 16
M  V30 16 1 12 17
M  V30 17 1 12 18
M  V30 18 1 14 19
M  V30 19 1 16 20
M  V30 20 1 17 21
M  V30 21 1 18 22
M  V30 22 1 20 23
M  V30 23 1 23 24
M  V30 24 1 24 25
M  V30 25 2 11 13
M  V30 26 2 15 19
M  V30 END BOND
M  V30 END CTAB
M  END
>  <Molecule Name>


>  <status>
DISCONTINUED

>  <cas>
85-79-0

>  <name>
DIBUCAINE

>  <ID>
52

>  <Smiles>
CCCCOc1nc2ccccc2c(C(NCCN(CC)CC)=O)c1

$$$$

Actelion Java MolfileCreator 2.0

  0  0  0  0  0  0              0 V3000
M  V30 BEGIN CTAB
M  V30 COUNTS 21 22 0 0 0
M  V30 BEGIN ATOM
M  V30 1 Cl 1.4928 -2.695 0.0 0
M  V30 2 C 2.621 -2.2699 0.0 0
M  V30 3 C 3.9315 -3.0265 0.0 0
M  V30 4 C 2.621 -0.7566 0.0 0
M  V30 5 Cl 3.9315 -4.5398 0.0 0
M  V30 6 C 5.2421 -2.2699 0.0 0
M  V30 7 C 3.9315 0.0 0.0 0
M  V30 8 C 1.3105 0.0 0.0 0
M  V30 9 C 5.2421 -0.7566 0.0 0
M  V30 10 O 3.9315 1.5132 0.0 0
M  V30 11 C 0.0 -0.7566 0.0 0
M  V30 12 Cl 6.5526 0.0 0.0 0
M  V30 13 C -1.3105 0.0 0.0 0
M  V30 14 C 0.0 -2.2699 0.0 0
M  V30 15 Cl -1.3105 1.5132 0.0 0
M  V30 16 C -2.621 -0.7566 0.0 0
M  V30 17 O 1.2193 -3.1922 0.0 0
M  V30 18 C -1.3105 -3.0265 0.0 0
M  V30 19 Cl -3.9315 0.0 0.0 0
M  V30 20 C -2.621 -2.2699 0.0 0
M  V30 21 Cl -1.3105 -4.5398 0.0 0
M  V30 END ATOM
M  V30 BEGIN BOND
M  V30 1 1 1 2
M  V30 2 2 2 3
M  V30 3 1 2 4
M  V30 4 1 3 5
M  V30 5 1 3 6
M  V30 6 2 4 7
M  V30 7 1 4 8
M  V30 8 2 6 9
M  V30 9 1 7 10
M  V30 10 1 8 11
M  V30 11 1 9 12
M  V30 12 2 11 13
M  V30 13 1 11 14
M  V30 14 1 13 15
M  V30 15 1 13 16
M  V30 16 1 14 17
M  V30 17 2 14 18
M  V30 18 1 16 19
M  V30 19 2 16 20
M  V30 20 1 18 21
M  V30 21 1 7 9
M  V30 22 1 18 20
M  V30 END BOND
M  V30 END CTAB
M  END
>  <Molecule Name>


>  <status>
-

>  <cas>
70-30-4

>  <name>
HEXACHLOROPHENE

>  <ID>
53

>  <Smiles>
Oc(c(Cc(c(Cl)c(cc1Cl)Cl)c1O)c(c(Cl)c1)Cl)c1Cl

$$$$

Actelion Java MolfileCreator 2.0

  0  0  0  0  0  0              0 V3000
M  V30 BEGIN CTAB
M  V30 COUNTS 6 5 0 0 0
M  V30 BEGIN ATOM
M  V30 1 S 1.732 -1.5 0.0 0
M  V30 2 C 1.732 -0.5 0.0 0 CFG=2
M  V30 3 C 2.598 0.0 0.0 0
M  V30 4 C 0.866 0.0 0.0 0
M  V30 5 S 3.4641 -0.5 0.0 0
M  V30 6 O 0.0 -0.5 0.0 0
M  V30 END ATOM
M  V30 BEGIN BOND
M  V30 1 1 2 1 CFG=1
M  V30 2 1 2 3
M  V30 3 1 2 4
M  V30 4 1 3 5
M  V30 5 1 4 6
M  V30 END BOND
M  V30 BEGIN COLLECTION
M  V30 MDLV30/STERAC1 ATOMS=(1 2)
M  V30 END COLLECTION
M  V30 END CTAB
M  END
>  <Molecule Name>


>  <status>
-

>  <cas>
59-52-9

>  <name>
DIMERCAPROL

>  <ID>
54

>  <Smiles>
OCC(CS)S

$$$$

Actelion Java MolfileCreator 2.0

  0  0  0  0  0  0              0 V3000
M  V30 BEGIN CTAB
M  V30 COUNTS 18 19 0 0 0
M  V30 BEGIN ATOM
M  V30 1 S 2.598 -0.75 0.0 0
M  V30 2 O 1.848 -2.049 0.0 0
M  V30 3 O 3.348 -2.049 0.0 0
M  V30 4 N 1.299 0.0 0.0 0
M  V30 5 C 3.8971 0.0 0.0 0
M  V30 6 C 0.0 -0.75 0.0 0
M  V30 7 C 5.1961 -0.75 0.0 0
M  V30 8 C 3.8971 1.5 0.0 0
M  V30 9 N -1.299 0.0 0.0 0
M  V30 10 N 0.0 -2.25 0.0 0
M  V30 11 C 6.4952 0.0 0.0 0
M  V30 12 C 5.1961 2.25 0.0 0
M  V30 13 C -2.598 -0.75 0.0 0
M  V30 14 C -1.299 -3.0 0.0 0
M  V30 15 C 6.4952 1.5 0.0 0
M  V30 16 C -2.598 -2.25 0.0 0
M  V30 17 C -3.8971 0.0 0.0 0
M  V30 18 N 7.7942 2.25 0.0 0
M  V30 END ATOM
M  V30 BEGIN BOND
M  V30 1 2 1 2
M  V30 2 2 1 3
M  V30 3 1 1 4
M  V30 4 1 1 5
M  V30 5 1 4 6
M  V30 6 2 5 7
M  V30 7 1 5 8
M  V30 8 2 6 9
M  V30 9 1 6 10
M  V30 10 1 7 11
M  V30 11 2 8 12
M  V30 12 1 9 13
M  V30 13 2 10 14
M  V30 14 2 11 15
M  V30 15 2 13 16
M  V30 16 1 13 17
M  V30 17 1 15 18
M  V30 18 1 12 15
M  V30 19 1 14 16
M  V30 END BOND
M  V30 END CTAB
M  END
>  <Molecule Name>


>  <status>
DISCONTINUED

>  <cas>
127-79-7

>  <name>
SULFAMERAZINE

>  <ID>
55

>  <Smiles>
Cc1ccnc(NS(c(cc2)ccc2N)(=O)=O)n1

$$$$

Actelion Java MolfileCreator 2.0

  0  0  0  0  0  0              0 V3000
M  V30 BEGIN CTAB
M  V30 COUNTS 19 20 0 0 0
M  V30 BEGIN ATOM
M  V30 1 S 2.598 -0.75 0.0 0
M  V30 2 O 1.848 -2.049 0.0 0
M  V30 3 O 3.348 -2.049 0.0 0
M  V30 4 N 1.299 0.0 0.0 0
M  V30 5 C 3.8971 0.0 0.0 0
M  V30 6 C 0.0 -0.75 0.0 0
M  V30 7 C 5.1961 -0.75 0.0 0
M  V30 8 C 3.8971 1.5 0.0 0
M  V30 9 N -1.299 0.0 0.0 0
M  V30 10 N 0.0 -2.25 0.0 0
M  V30 11 C 6.4952 0.0 0.0 0
M  V30 12 C 5.1961 2.25 0.0 0
M  V30 13 C -2.598 -0.75 0.0 0
M  V30 14 C -1.299 -3.0 0.0 0
M  V30 15 C 6.4952 1.5 0.0 0
M  V30 16 C -2.598 -2.25 0.0 0
M  V30 17 C -3.8971 0.0 0.0 0
M  V30 18 C -1.299 -4.5 0.0 0
M  V30 19 N 7.7942 2.25 0.0 0
M  V30 END ATOM
M  V30 BEGIN BOND
M  V30 1 2 1 2
M  V30 2 2 1 3
M  V30 3 1 1 4
M  V30 4 1 1 5
M  V30 5 1 4 6
M  V30 6 2 5 7
M  V30 7 1 5 8
M  V30 8 2 6 9
M  V30 9 1 6 10
M  V30 10 1 7 11
M  V30 11 2 8 12
M  V30 12 1 9 13
M  V30 13 2 10 14
M  V30 14 2 11 15
M  V30 15 2 13 16
M  V30 16 1 13 17
M  V30 17 1 14 18
M  V30 18 1 15 19
M  V30 19 1 12 15
M  V30 20 1 14 16
M  V30 END BOND
M  V30 END CTAB
M  END
>  <Molecule Name>


>  <status>
DISCONTINUED

>  <cas>
57-68-1

>  <name>
SULFAMETHAZINE

>  <ID>
56

>  <Smiles>
Cc1nc(NS(c(cc2)ccc2N)(=O)=O)nc(C)c1

$$$$

Actelion Java MolfileCreator 2.0

  0  0  0  0  0  0              0 V3000
M  V30 BEGIN CTAB
M  V30 COUNTS 15 15 0 0 0
M  V30 BEGIN ATOM
M  V30 1 O 6.9282 -0.5 0.0 0
M  V30 2 C 6.0621 0.0 0.0 0
M  V30 3 C 6.0621 0.9999 0.0 0
M  V30 4 C 5.1961 -0.5 0.0 0
M  V30 5 O 6.9282 1.4999 0.0 0
M  V30 6 C 5.1961 1.4999 0.0 0
M  V30 7 C 4.3301 0.0 0.0 0
M  V30 8 C 4.3301 1.0 0.0 0
M  V30 9 C 3.4641 -0.5 0.0 0 CFG=1
M  V30 10 O 3.4641 -1.5 0.0 0
M  V30 11 C 2.598 0.0 0.0 0
M  V30 12 N 1.732 -0.5 0.0 0
M  V30 13 C 0.866 0.0 0.0 0
M  V30 14 C 0.866 1.0 0.0 0
M  V30 15 C 0.0 -0.5 0.0 0
M  V30 END ATOM
M  V30 BEGIN BOND
M  V30 1 1 1 2
M  V30 2 2 2 3
M  V30 3 1 2 4
M  V30 4 1 3 5
M  V30 5 1 3 6
M  V30 6 2 4 7
M  V30 7 2 6 8
M  V30 8 1 9 7
M  V30 9 1 9 10 CFG=1
M  V30 10 1 9 11
M  V30 11 1 11 12
M  V30 12 1 12 13
M  V30 13 1 13 14
M  V30 14 1 13 15
M  V30 15 1 7 8
M  V30 END BOND
M  V30 BEGIN COLLECTION
M  V30 MDLV30/STERAC1 ATOMS=(1 9)
M  V30 END COLLECTION
M  V30 END CTAB
M  END
>  <Molecule Name>


>  <status>
-

>  <cas>
7683-59-2

>  <name>
ISOPROTERENOL

>  <ID>
57

>  <Smiles>
CC(C)NCC(c(cc1)cc(O)c1O)O

$$$$

Actelion Java MolfileCreator 2.0

  0  0  0  0  0  0              0 V3000
M  V30 BEGIN CTAB
M  V30 COUNTS 15 15 0 0 0
M  V30 BEGIN ATOM
M  V30 1 O 6.9282 -0.5 0.0 0
M  V30 2 C 6.0621 0.0 0.0 0
M  V30 3 C 6.0621 0.9999 0.0 0
M  V30 4 C 5.1961 -0.5 0.0 0
M  V30 5 O 6.9282 1.4999 0.0 0
M  V30 6 C 5.1961 1.4999 0.0 0
M  V30 7 C 4.3301 0.0 0.0 0
M  V30 8 C 4.3301 1.0 0.0 0
M  V30 9 C 3.4641 -0.5 0.0 0 CFG=1
M  V30 10 O 3.4641 -1.5 0.0 0
M  V30 11 C 2.598 0.0 0.0 0
M  V30 12 N 1.732 -0.5 0.0 0
M  V30 13 C 0.866 0.0 0.0 0
M  V30 14 C 0.866 1.0 0.0 0
M  V30 15 C 0.0 -0.5 0.0 0
M  V30 END ATOM
M  V30 BEGIN BOND
M  V30 1 1 1 2
M  V30 2 2 2 3
M  V30 3 1 2 4
M  V30 4 1 3 5
M  V30 5 1 3 6
M  V30 6 2 4 7
M  V30 7 2 6 8
M  V30 8 1 9 7
M  V30 9 1 9 10 CFG=1
M  V30 10 1 9 11
M  V30 11 1 11 12
M  V30 12 1 12 13
M  V30 13 1 13 14
M  V30 14 1 13 15
M  V30 15 1 7 8
M  V30 END BOND
M  V30 BEGIN COLLECTION
M  V30 MDLV30/STERAC1 ATOMS=(1 9)
M  V30 END COLLECTION
M  V30 END CTAB
M  END
>  <Molecule Name>


>  <status>
-

>  <cas>
7683-59-2

>  <name>
ISOPROTERENOL

>  <ID>
58

>  <Smiles>
CC(C)NCC(c(cc1)cc(O)c1O)O

$$$$

Actelion Java MolfileCreator 2.0

  0  0  0  0  0  0              0 V3000
M  V30 BEGIN CTAB
M  V30 COUNTS 12 13 0 0 0
M  V30 BEGIN ATOM
M  V30 1 N 3.9683 -0.1398 0.0 0
M  V30 2 C 2.598 -0.75 0.0 0
M  V30 3 C 4.972 -1.2546 0.0 0
M  V30 4 N 2.7548 -2.2417 0.0 0
M  V30 5 C 1.299 0.0 0.0 0
M  V30 6 C 4.222 -2.5536 0.0 0
M  V30 7 C 0.0 -0.75 0.0 0
M  V30 8 C -1.299 0.0 0.0 0
M  V30 9 C 0.0 -2.2499 0.0 0
M  V30 10 C -2.598 -0.7499 0.0 0
M  V30 11 C -1.299 -2.9999 0.0 0
M  V30 12 C -2.598 -2.2499 0.0 0
M  V30 END ATOM
M  V30 BEGIN BOND
M  V30 1 2 1 2
M  V30 2 1 1 3
M  V30 3 1 2 4
M  V30 4 1 2 5
M  V30 5 1 3 6
M  V30 6 1 5 7
M  V30 7 2 7 8
M  V30 8 1 7 9
M  V30 9 1 8 10
M  V30 10 2 9 11
M  V30 11 2 10 12
M  V30 12 1 4 6
M  V30 13 1 11 12
M  V30 END BOND
M  V30 END CTAB
M  END
>  <Molecule Name>


>  <status>
DISCONTINUED

>  <cas>
59-98-3

>  <name>
TOLAZOLINE

>  <ID>
59

>  <Smiles>
C(C1=NCCN1)c1ccccc1

$$$$

Actelion Java MolfileCreator 2.0

  0  0  0  0  0  0              0 V3000
M  V30 BEGIN CTAB
M  V30 COUNTS 20 21 0 0 0
M  V30 BEGIN ATOM
M  V30 1 O 3.4641 -0.5 0.0 0
M  V30 2 C 4.3301 0.0 0.0 0 CFG=2
M  V30 3 C 2.598 0.0 0.0 0
M  V30 4 C 5.1961 -0.5 0.0 0
M  V30 5 C 4.3301 0.9999 0.0 0
M  V30 6 C 4.3301 -1.0 0.0 0
M  V30 7 C 1.732 -0.5 0.0 0
M  V30 8 N 5.1961 -1.5 0.0 0
M  V30 9 C 6.0621 0.0 0.0 0
M  V30 10 C 5.1961 1.4999 0.0 0
M  V30 11 C 3.4641 1.5 0.0 0
M  V30 12 N 0.866 0.0 0.0 0
M  V30 13 C 6.0621 -2.0 0.0 0
M  V30 14 C 6.9282 -0.5 0.0 0
M  V30 15 C 5.1961 2.4999 0.0 0
M  V30 16 C 3.4641 2.5 0.0 0
M  V30 17 C 0.866 1.0 0.0 0
M  V30 18 C 0.0 -0.5 0.0 0
M  V30 19 C 6.9282 -1.5 0.0 0
M  V30 20 C 4.3301 2.9999 0.0 0
M  V30 END ATOM
M  V30 BEGIN BOND
M  V30 1 1 2 1
M  V30 2 1 1 3
M  V30 3 1 2 4
M  V30 4 1 2 5
M  V30 5 1 2 6 CFG=3
M  V30 6 1 3 7
M  V30 7 2 4 8
M  V30 8 1 4 9
M  V30 9 2 5 10
M  V30 10 1 5 11
M  V30 11 1 7 12
M  V30 12 1 8 13
M  V30 13 2 9 14
M  V30 14 1 10 15
M  V30 15 2 11 16
M  V30 16 1 12 17
M  V30 17 1 12 18
M  V30 18 2 13 19
M  V30 19 2 15 20
M  V30 20 1 14 19
M  V30 21 1 16 20
M  V30 END BOND
M  V30 BEGIN COLLECTION
M  V30 MDLV30/STERAC1 ATOMS=(1 2)
M  V30 END COLLECTION
M  V30 END CTAB
M  END
>  <Molecule Name>


>  <status>
-

>  <cas>
469-21-6

>  <name>
DOXYLAMINE

>  <ID>
60

>  <Smiles>
CC(c1ccccc1)(c1ncccc1)OCCN(C)C

$$$$

Actelion Java MolfileCreator 2.0

  0  0  0  0  0  0              0 V3000
M  V30 BEGIN CTAB
M  V30 COUNTS 25 27 0 0 0
M  V30 BEGIN ATOM
M  V30 1 Cl 10.3923 -6.75 0.0 0
M  V30 2 C 10.3923 -5.25 0.0 0
M  V30 3 C 11.6913 -4.5 0.0 0
M  V30 4 C 9.0932 -4.5 0.0 0
M  V30 5 C 11.6913 -3.0 0.0 0
M  V30 6 C 9.0932 -3.0 0.0 0
M  V30 7 N 12.9903 -2.25 0.0 0
M  V30 8 C 10.3923 -2.25 0.0 0
M  V30 9 C 12.9903 -0.75 0.0 0
M  V30 10 C 10.3923 -0.75 0.0 0
M  V30 11 C 11.6913 0.0 0.0 0
M  V30 12 N 9.0932 0.0 0.0 0
M  V30 13 C 7.7942 -0.75 0.0 0
M  V30 14 C 6.4951 0.0 0.0 0
M  V30 15 C 7.7942 -2.2499 0.0 0
M  V30 16 C 5.1961 -0.75 0.0 0
M  V30 17 C 6.4951 -3.0 0.0 0
M  V30 18 C 5.1961 -2.2499 0.0 0
M  V30 19 C 3.8971 0.0 0.0 0
M  V30 20 O 3.8971 -2.9999 0.0 0
M  V30 21 N 3.8971 1.4999 0.0 0
M  V30 22 C 5.1961 2.2499 0.0 0
M  V30 23 C 2.598 2.2499 0.0 0
M  V30 24 C 6.4951 1.5 0.0 0
M  V30 25 C 2.598 3.75 0.0 0
M  V30 END ATOM
M  V30 BEGIN BOND
M  V30 1 1 1 2
M  V30 2 2 2 3
M  V30 3 1 2 4
M  V30 4 1 3 5
M  V30 5 2 4 6
M  V30 6 2 5 7
M  V30 7 1 5 8
M  V30 8 1 7 9
M  V30 9 2 8 10
M  V30 10 2 9 11
M  V30 11 1 10 12
M  V30 12 1 12 13
M  V30 13 2 13 14
M  V30 14 1 13 15
M  V30 15 1 14 16
M  V30 16 2 15 17
M  V30 17 2 16 18
M  V30 18 1 16 19
M  V30 19 1 18 20
M  V30 20 1 19 21
M  V30 21 1 21 22
M  V30 22 1 21 23
M  V30 23 1 22 24
M  V30 24 1 23 25
M  V30 25 1 6 8
M  V30 26 1 10 11
M  V30 27 1 17 18
M  V30 END BOND
M  V30 END CTAB
M  END
>  <Molecule Name>


>  <status>
DISCONTINUED

>  <cas>
86-42-0

>  <name>
AMODIAQUINE

>  <ID>
61

>  <Smiles>
CCN(CC)Cc(cc(cc1)Nc2c(ccc(Cl)c3)c3ncc2)c1O

$$$$

Actelion Java MolfileCreator 2.0

  0  0  0  0  0  0              0 V3000
M  V30 BEGIN CTAB
M  V30 COUNTS 14 14 0 0 0
M  V30 BEGIN ATOM
M  V30 1 O 3.4641 -0.5 0.0 0
M  V30 2 C 2.598 0.0 0.0 0
M  V30 3 N 2.598 1.0 0.0 0
M  V30 4 N 1.732 -0.5 0.0 0
M  V30 5 C 3.4641 1.5 0.0 0
M  V30 6 C 1.732 1.4999 0.0 0
M  V30 7 C 1.732 -1.5 0.0 0
M  V30 8 C 0.866 0.0 0.0 0
M  V30 9 C 3.4641 2.5 0.0 0
M  V30 10 C 1.732 2.5 0.0 0
M  V30 11 C 2.598 -1.9999 0.0 0
M  V30 12 C 0.0 -0.5 0.0 0
M  V30 13 N 2.598 3.0 0.0 0
M  V30 14 C 2.598 4.0 0.0 0
M  V30 END ATOM
M  V30 BEGIN BOND
M  V30 1 2 1 2
M  V30 2 1 2 3
M  V30 3 1 2 4
M  V30 4 1 3 5
M  V30 5 1 3 6
M  V30 6 1 4 7
M  V30 7 1 4 8
M  V30 8 1 5 9
M  V30 9 1 6 10
M  V30 10 1 7 11
M  V30 11 1 8 12
M  V30 12 1 9 13
M  V30 13 1 13 14
M  V30 14 1 10 13
M  V30 END BOND
M  V30 END CTAB
M  END
>  <Molecule Name>


>  <status>
DISCONTINUED

>  <cas>
90-89-1

>  <name>
DIETHYLCARBAMAZINE

>  <ID>
62

>  <Smiles>
CCN(CC)C(N1CCN(C)CC1)=O

$$$$

Actelion Java MolfileCreator 2.0

  0  0  0  0  0  0              0 V3000
M  V30 BEGIN CTAB
M  V30 COUNTS 17 17 0 0 0
M  V30 BEGIN ATOM
M  V30 1 O 3.4641 -1.5 0.0 0
M  V30 2 C 3.4641 -0.5 0.0 0
M  V30 3 N 4.3301 0.0 0.0 0
M  V30 4 C 2.598 0.0 0.0 0
M  V30 5 C 5.1961 -0.5 0.0 0
M  V30 6 N 1.732 -0.5 0.0 0
M  V30 7 C 5.1961 -1.5 0.0 0
M  V30 8 C 6.0621 0.0 0.0 0
M  V30 9 C 1.732 -1.5 0.0 0
M  V30 10 C 0.866 0.0 0.0 0
M  V30 11 C 6.0621 -2.0 0.0 0
M  V30 12 C 4.3301 -1.9999 0.0 0
M  V30 13 C 6.9282 -0.5 0.0 0
M  V30 14 C 6.0621 0.9999 0.0 0
M  V30 15 C 2.598 -1.9999 0.0 0
M  V30 16 C 0.0 -0.5 0.0 0
M  V30 17 C 6.9282 -1.5 0.0 0
M  V30 END ATOM
M  V30 BEGIN BOND
M  V30 1 2 1 2
M  V30 2 1 2 3
M  V30 3 1 2 4
M  V30 4 1 3 5
M  V30 5 1 4 6
M  V30 6 2 5 7
M  V30 7 1 5 8
M  V30 8 1 6 9
M  V30 9 1 6 10
M  V30 10 1 7 11
M  V30 11 1 7 12
M  V30 12 2 8 13
M  V30 13 1 8 14
M  V30 14 1 9 15
M  V30 15 1 10 16
M  V30 16 2 11 17
M  V30 17 1 13 17
M  V30 END BOND
M  V30 END CTAB
M  END
>  <Molecule Name>


>  <status>
-

>  <cas>
137-58-6

>  <name>
LIDOCAINE

>  <ID>
63

>  <Smiles>
CCN(CC)CC(Nc1c(C)cccc1C)=O

$$$$

Actelion Java MolfileCreator 2.0

  0  0  0  0  0  0              0 V3000
M  V30 BEGIN CTAB
M  V30 COUNTS 13 13 0 0 0
M  V30 BEGIN ATOM
M  V30 1 O 4.3301 -2.9999 0.0 0
M  V30 2 C 4.3301 -1.9999 0.0 0
M  V30 3 C 5.1961 -1.5 0.0 0
M  V30 4 C 3.4641 -1.5 0.0 0
M  V30 5 O 6.0621 -2.0 0.0 0
M  V30 6 C 5.1961 -0.5 0.0 0
M  V30 7 C 3.4641 -0.5 0.0 0
M  V30 8 C 4.3301 0.0 0.0 0
M  V30 9 C 2.598 0.0 0.0 0 CFG=1
M  V30 10 O 2.598 1.0 0.0 0
M  V30 11 C 1.732 -0.5 0.0 0
M  V30 12 N 0.866 0.0 0.0 0
M  V30 13 C 0.0 -0.5 0.0 0
M  V30 END ATOM
M  V30 BEGIN BOND
M  V30 1 1 1 2
M  V30 2 2 2 3
M  V30 3 1 2 4
M  V30 4 1 3 5
M  V30 5 1 3 6
M  V30 6 2 4 7
M  V30 7 2 6 8
M  V30 8 1 9 7
M  V30 9 1 9 10 CFG=3
M  V30 10 1 9 11
M  V30 11 1 11 12
M  V30 12 1 12 13
M  V30 13 1 7 8
M  V30 END BOND
M  V30 BEGIN COLLECTION
M  V30 MDLV30/STERAC1 ATOMS=(1 9)
M  V30 END COLLECTION
M  V30 END CTAB
M  END
>  <Molecule Name>


>  <status>
-

>  <cas>
51-43-4

>  <name>
EPINEPHRINE

>  <ID>
64

>  <Smiles>
CNCC(c(cc1)cc(O)c1O)O

$$$$

Actelion Java MolfileCreator 2.0

  0  0  0  0  0  0              0 V3000
M  V30 BEGIN CTAB
M  V30 COUNTS 18 19 0 0 0
M  V30 BEGIN ATOM
M  V30 1 S 2.598 -0.75 0.0 0
M  V30 2 O 1.848 -2.049 0.0 0
M  V30 3 O 3.348 -2.049 0.0 0
M  V30 4 N 1.299 0.0 0.0 0
M  V30 5 C 3.8971 0.0 0.0 0
M  V30 6 C 0.0 -0.75 0.0 0
M  V30 7 C 5.1961 -0.75 0.0 0
M  V30 8 C 3.8971 1.5 0.0 0
M  V30 9 O -1.3703 -0.1398 0.0 0
M  V30 10 C -0.1567 -2.2417 0.0 0
M  V30 11 C 6.4952 0.0 0.0 0
M  V30 12 C 5.1961 2.25 0.0 0
M  V30 13 N -2.374 -1.2546 0.0 0
M  V30 14 C -1.624 -2.5536 0.0 0
M  V30 15 C 0.9579 -3.2454 0.0 0
M  V30 16 C 6.4952 1.5 0.0 0
M  V30 17 C -2.2341 -3.9239 0.0 0
M  V30 18 N 7.7942 2.25 0.0 0
M  V30 END ATOM
M  V30 BEGIN BOND
M  V30 1 2 1 2
M  V30 2 2 1 3
M  V30 3 1 1 4
M  V30 4 1 1 5
M  V30 5 1 4 6
M  V30 6 2 5 7
M  V30 7 1 5 8
M  V30 8 1 6 9
M  V30 9 2 6 10
M  V30 10 1 7 11
M  V30 11 2 8 12
M  V30 12 1 9 13
M  V30 13 1 10 14
M  V30 14 1 10 15
M  V30 15 2 11 16
M  V30 16 1 14 17
M  V30 17 1 16 18
M  V30 18 1 12 16
M  V30 19 2 13 14
M  V30 END BOND
M  V30 END CTAB
M  END
>  <Molecule Name>


>  <status>
DISCONTINUED

>  <cas>
127-69-5

>  <name>
SULFISOXAZOLE

>  <ID>
65

>  <Smiles>
Cc1c(NS(c(cc2)ccc2N)(=O)=O)onc1C

$$$$

Actelion Java MolfileCreator 2.0

  0  0  0  0  0  0              0 V3000
M  V30 BEGIN CTAB
M  V30 COUNTS 21 22 0 0 0
M  V30 BEGIN ATOM
M  V30 1 S 3.8971 0.0 0.0 0
M  V30 2 O 4.6471 1.299 0.0 0
M  V30 3 O 3.1471 1.299 0.0 0
M  V30 4 N 2.598 -0.75 0.0 0
M  V30 5 C 5.1961 -0.75 0.0 0
M  V30 6 C 2.598 -2.25 0.0 0
M  V30 7 C 1.299 0.0 0.0 0
M  V30 8 C 5.1961 -2.25 0.0 0
M  V30 9 C 6.4952 0.0 0.0 0
M  V30 10 O 3.8116 -3.1316 0.0 0
M  V30 11 C 1.3845 -3.1316 0.0 0
M  V30 12 O 1.299 1.5 0.0 0
M  V30 13 C 0.0 -0.75 0.0 0
M  V30 14 C 6.4952 -3.0 0.0 0
M  V30 15 C 7.7942 -0.75 0.0 0
M  V30 16 N 3.348 -4.5582 0.0 0
M  V30 17 C 1.848 -4.5582 0.0 0
M  V30 18 C -0.042 -2.6681 0.0 0
M  V30 19 C 7.7942 -2.25 0.0 0
M  V30 20 C 0.9664 -5.7717 0.0 0
M  V30 21 N 9.0932 -3.0 0.0 0
M  V30 END ATOM
M  V30 BEGIN BOND
M  V30 1 2 1 2
M  V30 2 2 1 3
M  V30 3 1 1 4
M  V30 4 1 1 5
M  V30 5 1 4 6
M  V30 6 1 4 7
M  V30 7 2 5 8
M  V30 8 1 5 9
M  V30 9 1 6 10
M  V30 10 2 6 11
M  V30 11 2 7 12
M  V30 12 1 7 13
M  V30 13 1 8 14
M  V30 14 2 9 15
M  V30 15 1 10 16
M  V30 16 1 11 17
M  V30 17 1 11 18
M  V30 18 2 14 19
M  V30 19 1 17 20
M  V30 20 1 19 21
M  V30 21 1 15 19
M  V30 22 2 16 17
M  V30 END BOND
M  V30 END CTAB
M  END
>  <Molecule Name>


>  <status>
DISCONTINUED

>  <cas>
80-74-0

>  <name>
SULFISOXAZOLE ACETYL

>  <ID>
66

>  <Smiles>
CC(N(c1c(C)c(C)no1)S(c(cc1)ccc1N)(=O)=O)=O

$$$$

Actelion Java MolfileCreator 2.0

  0  0  0  0  0  0              0 V3000
M  V30 BEGIN CTAB
M  V30 COUNTS 11 11 0 0 0
M  V30 BEGIN ATOM
M  V30 1 S 1.299 0.0 0.0 0
M  V30 2 O 2.049 -1.299 0.0 0
M  V30 3 O 0.549 1.299 0.0 0
M  V30 4 N 2.598 0.7499 0.0 0
M  V30 5 C 0.0 -0.75 0.0 0
M  V30 6 C -1.299 0.0 0.0 0
M  V30 7 C 0.0 -2.2499 0.0 0
M  V30 8 C -2.598 -0.7499 0.0 0
M  V30 9 C -1.299 -2.9999 0.0 0
M  V30 10 C -2.598 -2.2499 0.0 0
M  V30 11 N -3.8971 -2.9999 0.0 0
M  V30 END ATOM
M  V30 BEGIN BOND
M  V30 1 2 1 2
M  V30 2 2 1 3
M  V30 3 1 1 4
M  V30 4 1 1 5
M  V30 5 2 5 6
M  V30 6 1 5 7
M  V30 7 1 6 8
M  V30 8 2 7 9
M  V30 9 2 8 10
M  V30 10 1 10 11
M  V30 11 1 9 10
M  V30 END BOND
M  V30 END CTAB
M  END
>  <Molecule Name>


>  <status>
DISCONTINUED

>  <cas>
63-74-1

>  <name>
SULFANILAMIDE

>  <ID>
67

>  <Smiles>
Nc(cc1)ccc1S(N)(=O)=O

$$$$

Actelion Java MolfileCreator 2.0

  0  0  0  0  0  0              0 V3000
M  V30 BEGIN CTAB
M  V30 COUNTS 11 10 0 0 0
M  V30 BEGIN ATOM
M  V30 1 O 4.3301 0.0 0.0 0
M  V30 2 C 3.4641 -0.5 0.0 0
M  V30 3 O 2.598 0.0 0.0 0
M  V30 4 N 3.4641 -1.5 0.0 0
M  V30 5 C 1.732 -0.5 0.0 0 CFG=2
M  V30 6 C 0.866 0.0 0.0 0
M  V30 7 C 1.732 -1.5 0.0 0
M  V30 8 N 0.0 -0.5 0.0 0 CHG=1
M  V30 9 C 0.4999 -1.366 0.0 0
M  V30 10 C -0.866 -0.9999 0.0 0
M  V30 11 C -0.4999 0.366 0.0 0
M  V30 END ATOM
M  V30 BEGIN BOND
M  V30 1 2 1 2
M  V30 2 1 2 3
M  V30 3 1 2 4
M  V30 4 1 5 3 CFG=1
M  V30 5 1 5 6
M  V30 6 1 5 7
M  V30 7 1 6 8
M  V30 8 1 8 9
M  V30 9 1 8 10
M  V30 10 1 8 11
M  V30 END BOND
M  V30 BEGIN COLLECTION
M  V30 MDLV30/STERAC1 ATOMS=(1 5)
M  V30 END COLLECTION
M  V30 END CTAB
M  END
>  <Molecule Name>


>  <status>
-

>  <cas>
590-63-6

>  <name>
BETHANECHOL

>  <ID>
68

>  <Smiles>
CC(C[N+](C)(C)C)OC(N)=O

$$$$

Actelion Java MolfileCreator 2.0

  0  0  0  0  0  0              0 V3000
M  V30 BEGIN CTAB
M  V30 COUNTS 14 15 0 0 0
M  V30 BEGIN ATOM
M  V30 1 O 2.8464 5.7715 0.0 0
M  V30 2 C 2.3828 4.3449 0.0 0
M  V30 3 N 0.9156 4.033 0.0 0
M  V30 4 N 3.3865 3.2302 0.0 0
M  V30 5 C 0.4521 2.6065 0.0 0
M  V30 6 C -0.088 5.1478 0.0 0
M  V30 7 C 2.923 1.8036 0.0 0
M  V30 8 C 4.8537 3.5421 0.0 0
M  V30 9 O -1.015 2.2946 0.0 0
M  V30 10 C 1.4558 1.4917 0.0 0
M  V30 11 N 3.673 0.5046 0.0 0
M  V30 12 N 1.299 0.0 0.0 0
M  V30 13 C 2.6693 -0.6101 0.0 0
M  V30 14 C 0.0 -0.75 0.0 0
M  V30 END ATOM
M  V30 BEGIN BOND
M  V30 1 2 1 2
M  V30 2 1 2 3
M  V30 3 1 2 4
M  V30 4 1 3 5
M  V30 5 1 3 6
M  V30 6 1 4 7
M  V30 7 1 4 8
M  V30 8 2 5 9
M  V30 9 1 5 10
M  V30 10 1 7 11
M  V30 11 1 10 12
M  V30 12 2 11 13
M  V30 13 1 12 14
M  V30 14 2 7 10
M  V30 15 1 12 13
M  V30 END BOND
M  V30 END CTAB
M  END
>  <Molecule Name>


>  <status>
-

>  <cas>
58-08-2

>  <name>
CAFFEINE

>  <ID>
69

>  <Smiles>
Cn1c(C(N(C)C(N2C)=O)=O)c2nc1

$$$$
_c001
Actelion Java MolfileCreator 2.0

  0  0  0  0  0  0              0 V3000
M  V30 BEGIN CTAB
M  V30 COUNTS 43 50 0 0 0
M  V30 BEGIN ATOM
M  V30 1 O -4.0826 -1.7024 0.0 0
M  V30 2 C -3.0826 -1.7024 0.0 0
M  V30 3 N -2.5826 -2.5684 0.0 0
M  V30 4 C -2.5826 -0.8364 0.0 0 CFG=1
M  V30 5 C -1.5826 -2.5684 0.0 0 CFG=2
M  V30 6 C -2.8916 -3.5195 0.0 0
M  V30 7 N -1.5826 -0.8364 0.0 0
M  V30 8 C -3.0826 0.0296 0.0 0
M  V30 9 C -1.0826 -1.7024 0.0 0 CFG=1
M  V30 10 C -1.2736 -3.5195 0.0 0
M  V30 11 C -2.0826 -4.1073 0.0 0
M  V30 12 C -0.9135 -0.0932 0.0 0
M  V30 13 C -4.0826 0.0296 0.0 0
M  V30 14 O -0.1045 -1.4945 0.0 0
M  V30 15 O -0.4948 -2.5114 0.0 0
M  V30 16 O -1.1214 0.8848 0.0 0
M  V30 17 C 0.0 -0.5 0.0 0 CFG=1
M  V30 18 C -4.5826 0.8956 0.0 0
M  V30 19 C -4.5826 -0.8364 0.0 0
M  V30 20 N 0.866 0.0 0.0 0
M  V30 21 C 0.8386 -1.0446 0.0 0
M  V30 22 C -5.5826 0.8956 0.0 0
M  V30 23 C -5.5826 -0.8364 0.0 0
M  V30 24 C 1.732 -0.5 0.0 0
M  V30 25 C -6.0826 0.0296 0.0 0
M  V30 26 O 2.598 0.0 0.0 0
M  V30 27 C 1.732 -1.5 0.0 0 CFG=2
M  V30 28 C 2.598 -1.9999 0.0 0
M  V30 29 C 0.866 -1.9999 0.0 0
M  V30 30 C 2.598 -3.0 0.0 0
M  V30 31 N 0.866 -3.0 0.0 0
M  V30 32 C 3.4641 -3.4999 0.0 0
M  V30 33 C 1.732 -3.4999 0.0 0 CFG=2
M  V30 34 C 0.0 -3.5 0.0 0
M  V30 35 C 3.4641 -4.4999 0.0 0
M  V30 36 C 4.4253 -3.124 0.0 0
M  V30 37 C 1.732 -4.5 0.0 0
M  V30 38 C 4.2072 -5.1691 0.0 0
M  V30 39 C 2.598 -4.9999 0.0 0
M  V30 40 C 5.2343 -3.7118 0.0 0
M  V30 41 N 3.8005 -6.0826 0.0 0
M  V30 42 C 5.1298 -4.7063 0.0 0
M  V30 43 C 2.8059 -5.9781 0.0 0
M  V30 END ATOM
M  V30 BEGIN BOND
M  V30 1 2 1 2
M  V30 2 1 2 3
M  V30 3 1 4 2
M  V30 4 1 5 3 CFG=3
M  V30 5 1 3 6
M  V30 6 1 4 7
M  V30 7 1 4 8 CFG=3
M  V30 8 1 9 5
M  V30 9 1 5 10
M  V30 10 1 6 11
M  V30 11 1 7 12
M  V30 12 1 8 13
M  V30 13 1 9 14
M  V30 14 1 9 15 CFG=3
M  V30 15 2 12 16
M  V30 16 1 17 12
M  V30 17 2 13 18
M  V30 18 1 13 19
M  V30 19 1 17 20 CFG=3
M  V30 20 1 17 21
M  V30 21 1 18 22
M  V30 22 2 19 23
M  V30 23 1 20 24
M  V30 24 2 22 25
M  V30 25 2 24 26
M  V30 26 1 27 24 CFG=3
M  V30 27 1 27 28
M  V30 28 1 27 29
M  V30 29 2 28 30
M  V30 30 1 29 31
M  V30 31 1 30 32
M  V30 32 1 33 30
M  V30 33 1 31 34
M  V30 34 2 32 35
M  V30 35 1 32 36
M  V30 36 1 33 37
M  V30 37 1 35 38
M  V30 38 1 35 39
M  V30 39 2 36 40
M  V30 40 1 38 41
M  V30 41 2 38 42
M  V30 42 2 39 43
M  V30 43 1 7 9
M  V30 44 1 10 11
M  V30 45 1 14 17
M  V30 46 1 23 25
M  V30 47 1 33 31 CFG=1
M  V30 48 1 37 39
M  V30 49 1 40 42
M  V30 50 1 41 43
M  V30 END BOND
M  V30 BEGIN COLLECTION
M  V30 MDLV30/STERAC1 ATOMS=(6 4 5 9 17 27 33)
M  V30 END COLLECTION
M  V30 END CTAB
M  END
>  <Molecule Name>
_c001

>  <status>
-

>  <cas>
113-15-5

>  <name>
ERGOTAMINE

>  <ID>
70

>  <Smiles>
C[C@@](C(N1[C@@H](Cc2ccccc2)C(N2[C@H]3CCC2)=O)=O)(NC([C@@H](CN(C)[C@@H]2Cc4c[nH]5)C=C2c2c4c5ccc2)=O)O[C@@]13O

$$$$

Actelion Java MolfileCreator 2.0

  0  0  0  0  0  0              0 V3000
M  V30 BEGIN CTAB
M  V30 COUNTS 48 54 0 0 0
M  V30 BEGIN ATOM
M  V30 1 O 2.6513 1.1913 0.0 0
M  V30 2 C 2.598 0.0 0.0 0
M  V30 3 C 3.043 2.2808 0.0 0
M  V30 4 C 1.732 -0.5 0.0 0
M  V30 5 C 3.4641 -0.4999 0.0 0
M  V30 6 C 2.4204 3.0634 0.0 0
M  V30 7 C 4.032 2.4287 0.0 0
M  V30 8 O 0.866 0.0 0.0 0
M  V30 9 C 1.732 -1.5 0.0 0
M  V30 10 C 3.4641 -1.4999 0.0 0
M  V30 11 O 1.4314 2.9154 0.0 0
M  V30 12 C 2.7868 3.9938 0.0 0
M  V30 13 C 4.3984 3.3592 0.0 0
M  V30 14 C 0.0 -0.5 0.0 0
M  V30 15 C 2.598 -1.9999 0.0 0
M  V30 16 C 4.3301 -1.9999 0.0 0 CFG=2
M  V30 17 C 1.0649 1.985 0.0 0
M  V30 18 C 3.7758 4.1417 0.0 0
M  V30 19 C 5.5599 3.4493 0.0 0
M  V30 20 C 2.598 -2.9999 0.0 0
M  V30 21 N 4.3301 -2.9999 0.0 0 CHG=1
M  V30 22 C 5.3979 -2.2608 0.0 0
M  V30 23 C 6.5449 3.1364 0.0 0 CFG=2
M  V30 24 C 3.4641 -3.4999 0.0 0
M  V30 25 C 4.8301 -3.866 0.0 0
M  V30 26 C 5.3301 -2.9999 0.0 0
M  V30 27 C 7.018 -2.0841 0.0 0
M  V30 28 N 6.2275 4.0847 0.0 0 CHG=1
M  V30 29 C 7.5248 2.9372 0.0 0
M  V30 30 C 6.7006 -1.1358 0.0 0
M  V30 31 C 7.9979 -2.2834 0.0 0
M  V30 32 C 6.89 4.8338 0.0 0
M  V30 33 C 5.4785 4.7473 0.0 0
M  V30 34 C 5.2526 3.8376 0.0 0
M  V30 35 C 7.8422 1.9889 0.0 0
M  V30 36 C 8.1874 3.6862 0.0 0
M  V30 37 C 7.3631 -0.3868 0.0 0
M  V30 38 C 8.6605 -1.5344 0.0 0
M  V30 39 C 7.87 4.6345 0.0 0
M  V30 40 O 8.3207 1.0434 0.0 0
M  V30 41 C 8.8222 1.7896 0.0 0
M  V30 42 C 9.1673 3.4869 0.0 0
M  V30 43 C 8.3431 -0.5861 0.0 0
M  V30 44 O 9.1396 0.8413 0.0 0
M  V30 45 C 9.4847 2.5386 0.0 0
M  V30 46 C 10.1195 0.642 0.0 0
M  V30 47 O 10.4647 2.3394 0.0 0
M  V30 48 C 11.1272 3.0884 0.0 0
M  V30 END ATOM
M  V30 BEGIN BOND
M  V30 1 1 1 2
M  V30 2 1 1 3
M  V30 3 2 2 4
M  V30 4 1 2 5
M  V30 5 2 3 6
M  V30 6 1 3 7
M  V30 7 1 4 8
M  V30 8 1 4 9
M  V30 9 2 5 10
M  V30 10 1 6 11
M  V30 11 1 6 12
M  V30 12 2 7 13
M  V30 13 1 8 14
M  V30 14 2 9 15
M  V30 15 1 16 10
M  V30 16 1 11 17
M  V30 17 2 12 18
M  V30 18 1 13 19
M  V30 19 1 15 20
M  V30 20 1 16 21 CFG=1
M  V30 21 1 16 22
M  V30 22 1 23 19
M  V30 23 1 20 24
M  V30 24 1 21 25
M  V30 25 1 21 26
M  V30 26 1 22 27
M  V30 27 1 23 28 CFG=1
M  V30 28 1 23 29
M  V30 29 2 27 30
M  V30 30 1 27 31
M  V30 31 1 28 32
M  V30 32 1 28 33
M  V30 33 1 28 34
M  V30 34 2 29 35
M  V30 35 1 29 36
M  V30 36 1 30 37
M  V30 37 2 31 38
M  V30 38 1 32 39
M  V30 39 1 35 40
M  V30 40 1 35 41
M  V30 41 2 36 42
M  V30 42 2 37 43
M  V30 43 1 41 44
M  V30 44 2 41 45
M  V30 45 1 44 46
M  V30 46 1 45 47
M  V30 47 1 47 48
M  V30 48 1 10 15
M  V30 49 1 13 18
M  V30 50 1 21 24
M  V30 51 1 36 39
M  V30 52 1 38 43
M  V30 53 1 40 43
M  V30 54 1 42 45
M  V30 END BOND
M  V30 BEGIN COLLECTION
M  V30 MDLV30/STERAC1 ATOMS=(2 16 23)
M  V30 END COLLECTION
M  V30 END CTAB
M  END
>  <Molecule Name>


>  <status>
DISCONTINUED

>  <cas>
5152-30-7

>  <name>
METOCURINE

>  <ID>
71

>  <Smiles>
C[N+](C)(CCc1c2)[C@H](Cc(cc3)ccc3Oc3c([C@H](Cc(cc4)cc(O5)c4OC)[N+](C)(C)CC4)c4cc(OC)c3OC)c1cc5c2OC

$$$$

Actelion Java MolfileCreator 2.0

  0  0  0  0  0  0              0 V3000
M  V30 BEGIN CTAB
M  V30 COUNTS 8 7 0 0 0
M  V30 BEGIN ATOM
M  V30 1 Cl 5.1961 -0.5 0.0 0
M  V30 2 C 4.3301 0.0 0.0 0
M  V30 3 C 3.4641 -0.5 0.0 0
M  V30 4 N 2.598 0.0 0.0 0
M  V30 5 C 1.732 -0.5 0.0 0
M  V30 6 C 2.598 1.0 0.0 0
M  V30 7 C 0.866 0.0 0.0 0
M  V30 8 Cl 0.0 -0.5 0.0 0
M  V30 END ATOM
M  V30 BEGIN BOND
M  V30 1 1 1 2
M  V30 2 1 2 3
M  V30 3 1 3 4
M  V30 4 1 4 5
M  V30 5 1 4 6
M  V30 6 1 5 7
M  V30 7 1 7 8
M  V30 END BOND
M  V30 END CTAB
M  END
>  <Molecule Name>


>  <status>
-

>  <cas>
51-75-2

>  <name>
MECHLORETHAMINE

>  <ID>
72

>  <Smiles>
CN(CCCl)CCCl

$$$$

Actelion Java MolfileCreator 2.0

  0  0  0  0  0  0              0 V3000
M  V30 BEGIN CTAB
M  V30 COUNTS 15 15 0 0 0
M  V30 BEGIN ATOM
M  V30 1 O 2.598 2.25 0.0 0
M  V30 2 C 3.8971 1.5 0.0 0
M  V30 3 C 1.299 1.5 0.0 0
M  V30 4 C 3.8971 0.0 0.0 0
M  V30 5 C 5.1961 2.25 0.0 0
M  V30 6 C 5.1961 -0.75 0.0 0
M  V30 7 C 2.598 -0.75 0.0 0 CFG=1
M  V30 8 C 6.4951 1.5 0.0 0
M  V30 9 C 6.4951 0.0 0.0 0
M  V30 10 O 1.299 0.0 0.0 0
M  V30 11 C 2.598 -2.25 0.0 0 CFG=1
M  V30 12 O 7.7942 -0.75 0.0 0
M  V30 13 N 3.8971 -3.0 0.0 0
M  V30 14 C 1.299 -3.0 0.0 0
M  V30 15 C 9.0932 0.0 0.0 0
M  V30 END ATOM
M  V30 BEGIN BOND
M  V30 1 1 1 2
M  V30 2 1 1 3
M  V30 3 2 2 4
M  V30 4 1 2 5
M  V30 5 1 4 6
M  V30 6 1 7 4
M  V30 7 2 5 8
M  V30 8 2 6 9
M  V30 9 1 7 10 CFG=3
M  V30 10 1 11 7
M  V30 11 1 9 12
M  V30 12 1 11 13 CFG=1
M  V30 13 1 11 14
M  V30 14 1 12 15
M  V30 15 1 8 9
M  V30 END BOND
M  V30 BEGIN COLLECTION
M  V30 MDLV30/STERAC1 ATOMS=(2 7 11)
M  V30 END COLLECTION
M  V30 END CTAB
M  END
>  <Molecule Name>


>  <status>
DISCONTINUED

>  <cas>
390-28-3

>  <name>
METHOXAMINE

>  <ID>
73

>  <Smiles>
C[C@@H]([C@@H](c(cc(cc1)OC)c1OC)O)N

$$$$

Actelion Java MolfileCreator 2.0

  0  0  0  0  0  0              0 V3000
M  V30 BEGIN CTAB
M  V30 COUNTS 22 24 0 0 0
M  V30 BEGIN ATOM
M  V30 1 O 3.4641 -0.5 0.0 0
M  V30 2 C 2.598 0.0 0.0 0 CFG=2
M  V30 3 C 2.598 1.0 0.0 0
M  V30 4 C 2.598 -1.0 0.0 0
M  V30 5 C 1.732 -0.5 0.0 0
M  V30 6 C 3.4641 1.5 0.0 0
M  V30 7 C 1.732 1.4999 0.0 0
M  V30 8 C 1.732 -1.5 0.0 0
M  V30 9 C 3.4641 -1.4999 0.0 0
M  V30 10 C 0.866 0.0 0.0 0
M  V30 11 C 3.4641 2.5 0.0 0
M  V30 12 C 1.732 2.5 0.0 0
M  V30 13 C 1.732 -2.5 0.0 0
M  V30 14 C 3.4641 -2.4999 0.0 0
M  V30 15 N 0.0 -0.5 0.0 0
M  V30 16 C 2.598 3.0 0.0 0
M  V30 17 C 2.598 -2.9999 0.0 0
M  V30 18 C -0.866 0.0 0.0 0
M  V30 19 C 0.0 -1.4999 0.0 0
M  V30 20 C -1.732 -0.4999 0.0 0
M  V30 21 C -0.866 -1.9999 0.0 0
M  V30 22 C -1.732 -1.4999 0.0 0
M  V30 END ATOM
M  V30 BEGIN BOND
M  V30 1 1 2 1
M  V30 2 1 2 3
M  V30 3 1 2 4 CFG=1
M  V30 4 1 2 5
M  V30 5 2 3 6
M  V30 6 1 3 7
M  V30 7 1 4 8
M  V30 8 1 4 9
M  V30 9 1 5 10
M  V30 10 1 6 11
M  V30 11 2 7 12
M  V30 12 1 8 13
M  V30 13 1 9 14
M  V30 14 1 10 15
M  V30 15 2 11 16
M  V30 16 1 13 17
M  V30 17 1 15 18
M  V30 18 1 15 19
M  V30 19 1 18 20
M  V30 20 1 19 21
M  V30 21 1 20 22
M  V30 22 1 12 16
M  V30 23 1 14 17
M  V30 24 1 21 22
M  V30 END BOND
M  V30 BEGIN COLLECTION
M  V30 MDLV30/STERAC1 ATOMS=(1 2)
M  V30 END COLLECTION
M  V30 END CTAB
M  END
>  <Molecule Name>


>  <status>
-

>  <cas>
144-11-6

>  <name>
TRIHEXYPHENIDYL

>  <ID>
74

>  <Smiles>
OC(CCN1CCCCC1)(C1CCCCC1)c1ccccc1

$$$$

Actelion Java MolfileCreator 2.0

  0  0  0  0  0  0              0 V3000
M  V30 BEGIN CTAB
M  V30 COUNTS 11 11 0 0 0
M  V30 BEGIN ATOM
M  V30 1 O -1.4894 -2.6159 0.0 0
M  V30 2 C -1.0826 -1.7024 0.0 0
M  V30 3 O -0.1045 -1.4945 0.0 0
M  V30 4 N -1.5826 -0.8364 0.0 0
M  V30 5 C 0.0 -0.5 0.0 0 CFG=2
M  V30 6 C -0.9135 -0.0932 0.0 0
M  V30 7 C -2.5771 -0.7318 0.0 0
M  V30 8 C 0.866 0.0 0.0 0
M  V30 9 C 0.8386 -1.0446 0.0 0
M  V30 10 O -1.1214 0.8848 0.0 0
M  V30 11 C 1.732 -0.5 0.0 0
M  V30 END ATOM
M  V30 BEGIN BOND
M  V30 1 2 1 2
M  V30 2 1 2 3
M  V30 3 1 2 4
M  V30 4 1 5 3
M  V30 5 1 4 6
M  V30 6 1 4 7
M  V30 7 1 5 8
M  V30 8 1 5 9 CFG=1
M  V30 9 2 6 10
M  V30 10 1 8 11
M  V30 11 1 5 6
M  V30 END BOND
M  V30 BEGIN COLLECTION
M  V30 MDLV30/STERAC1 ATOMS=(1 5)
M  V30 END COLLECTION
M  V30 END CTAB
M  END
>  <Molecule Name>


>  <status>
DISCONTINUED

>  <cas>
115-67-3

>  <name>
PARAMETHADIONE

>  <ID>
75

>  <Smiles>
CCC(C)(C(N1C)=O)OC1=O

$$$$

Actelion Java MolfileCreator 2.0

  0  0  0  0  0  0              0 V3000
M  V30 BEGIN CTAB
M  V30 COUNTS 11 11 0 0 0
M  V30 BEGIN ATOM
M  V30 1 O 2.598 -0.75 0.0 0
M  V30 2 C 1.299 0.0 0.0 0
M  V30 3 O 1.299 1.5 0.0 0 CHG=-1
M  V30 4 C 0.0 -0.75 0.0 0
M  V30 5 C -1.299 0.0 0.0 0
M  V30 6 C 0.0 -2.2499 0.0 0
M  V30 7 O -1.299 1.5 0.0 0
M  V30 8 C -2.598 -0.7499 0.0 0
M  V30 9 C -1.299 -2.9999 0.0 0
M  V30 10 C -2.598 -2.2499 0.0 0
M  V30 11 N -3.8971 -2.9999 0.0 0
M  V30 END ATOM
M  V30 BEGIN BOND
M  V30 1 2 1 2
M  V30 2 1 2 3
M  V30 3 1 2 4
M  V30 4 2 4 5
M  V30 5 1 4 6
M  V30 6 1 5 7
M  V30 7 1 5 8
M  V30 8 2 6 9
M  V30 9 2 8 10
M  V30 10 1 10 11
M  V30 11 1 9 10
M  V30 END BOND
M  V30 END CTAB
M  END
>  <Molecule Name>


>  <status>
-

>  <cas>
65-49-6

>  <name>
AMINOSALICYLIC ACID

>  <ID>
76

>  <Smiles>
Nc(cc1)cc(O)c1C([O-])=O

$$$$

Actelion Java MolfileCreator 2.0

  0  0  0  0  0  0              0 V3000
M  V30 BEGIN CTAB
M  V30 COUNTS 19 20 0 0 0
M  V30 BEGIN ATOM
M  V30 1 Cl 6.9282 1.4999 0.0 0
M  V30 2 C 6.0621 0.9999 0.0 0
M  V30 3 C 5.1961 1.4999 0.0 0
M  V30 4 C 6.0621 0.0 0.0 0
M  V30 5 C 4.3301 0.9999 0.0 0
M  V30 6 C 5.1961 -0.5 0.0 0
M  V30 7 C 4.3301 0.0 0.0 0
M  V30 8 C 3.4641 -0.5 0.0 0 CFG=1
M  V30 9 C 3.4641 -1.5 0.0 0
M  V30 10 C 2.598 0.0 0.0 0
M  V30 11 N 2.598 -1.9999 0.0 0
M  V30 12 C 4.3301 -2.0 0.0 0
M  V30 13 C 1.732 -0.5 0.0 0
M  V30 14 C 2.598 -2.9999 0.0 0
M  V30 15 C 4.3301 -3.0 0.0 0
M  V30 16 N 0.866 0.0 0.0 0
M  V30 17 C 3.4641 -3.5 0.0 0
M  V30 18 C 0.866 1.0 0.0 0
M  V30 19 C 0.0 -0.5 0.0 0
M  V30 END ATOM
M  V30 BEGIN BOND
M  V30 1 1 1 2
M  V30 2 2 2 3
M  V30 3 1 2 4
M  V30 4 1 3 5
M  V30 5 2 4 6
M  V30 6 2 5 7
M  V30 7 1 8 7
M  V30 8 1 8 9
M  V30 9 1 8 10 CFG=1
M  V30 10 2 9 11
M  V30 11 1 9 12
M  V30 12 1 10 13
M  V30 13 1 11 14
M  V30 14 2 12 15
M  V30 15 1 13 16
M  V30 16 2 14 17
M  V30 17 1 16 18
M  V30 18 1 16 19
M  V30 19 1 6 7
M  V30 20 1 15 17
M  V30 END BOND
M  V30 BEGIN COLLECTION
M  V30 MDLV30/STERAC1 ATOMS=(1 8)
M  V30 END COLLECTION
M  V30 END CTAB
M  END
>  <Molecule Name>


>  <status>
-

>  <cas>
132-22-9

>  <name>
CHLORPHENIRAMINE

>  <ID>
77

>  <Smiles>
CN(C)CCC(c(cc1)ccc1Cl)c1ncccc1

$$$$
_c001
Actelion Java MolfileCreator 2.0

  0  0  0  0  0  0              0 V3000
M  V30 BEGIN CTAB
M  V30 COUNTS 17 18 0 0 0
M  V30 BEGIN ATOM
M  V30 1 O 2.598 0.0 0.0 0
M  V30 2 C 1.732 -0.5 0.0 0
M  V30 3 O 0.866 0.0 0.0 0
M  V30 4 C 1.732 -1.5 0.0 0
M  V30 5 C 0.0 -0.5 0.0 0
M  V30 6 C 2.598 -1.9999 0.0 0
M  V30 7 C 0.866 -2.0 0.0 0
M  V30 8 C -0.866 0.0 0.0 0
M  V30 9 C 0.0 -1.4999 0.0 0
M  V30 10 O 3.4641 -1.4999 0.0 0
M  V30 11 C 2.598 -2.9999 0.0 0
M  V30 12 C 0.866 -3.0 0.0 0
M  V30 13 C -1.732 -0.4999 0.0 0
M  V30 14 C -0.866 -1.9999 0.0 0
M  V30 15 C 1.732 -3.5 0.0 0
M  V30 16 C -1.732 -1.4999 0.0 0
M  V30 17 N 1.732 -4.5 0.0 0
M  V30 END ATOM
M  V30 BEGIN BOND
M  V30 1 2 1 2
M  V30 2 1 2 3
M  V30 3 1 2 4
M  V30 4 1 3 5
M  V30 5 2 4 6
M  V30 6 1 4 7
M  V30 7 2 5 8
M  V30 8 1 5 9
M  V30 9 1 6 10
M  V30 10 1 6 11
M  V30 11 2 7 12
M  V30 12 1 8 13
M  V30 13 2 9 14
M  V30 14 2 11 15
M  V30 15 2 13 16
M  V30 16 1 15 17
M  V30 17 1 12 15
M  V30 18 1 14 16
M  V30 END BOND
M  V30 END CTAB
M  END
>  <Molecule Name>
_c001

>  <status>
DISCONTINUED

>  <cas>
133-11-9

>  <name>
PHENYL AMINOSALICYLATE

>  <ID>
78

>  <Smiles>
Nc(cc1)cc(O)c1C(Oc1ccccc1)=O

$$$$

Actelion Java MolfileCreator 2.0

  0  0  0  0  0  0              0 V3000
M  V30 BEGIN CTAB
M  V30 COUNTS 19 20 0 0 0
M  V30 BEGIN ATOM
M  V30 1 Cl 6.9282 1.4999 0.0 0
M  V30 2 C 6.0621 0.9999 0.0 0
M  V30 3 C 5.1961 1.4999 0.0 0
M  V30 4 C 6.0621 0.0 0.0 0
M  V30 5 C 4.3301 0.9999 0.0 0
M  V30 6 C 5.1961 -0.5 0.0 0
M  V30 7 C 4.3301 0.0 0.0 0
M  V30 8 C 3.4641 -0.5 0.0 0 CFG=1
M  V30 9 C 3.4641 -1.5 0.0 0
M  V30 10 C 2.598 0.0 0.0 0
M  V30 11 N 2.598 -1.9999 0.0 0
M  V30 12 C 4.3301 -2.0 0.0 0
M  V30 13 C 1.732 -0.5 0.0 0
M  V30 14 C 2.598 -2.9999 0.0 0
M  V30 15 C 4.3301 -3.0 0.0 0
M  V30 16 N 0.866 0.0 0.0 0
M  V30 17 C 3.4641 -3.5 0.0 0
M  V30 18 C 0.866 1.0 0.0 0
M  V30 19 C 0.0 -0.5 0.0 0
M  V30 END ATOM
M  V30 BEGIN BOND
M  V30 1 1 1 2
M  V30 2 2 2 3
M  V30 3 1 2 4
M  V30 4 1 3 5
M  V30 5 2 4 6
M  V30 6 2 5 7
M  V30 7 1 8 7
M  V30 8 1 8 9
M  V30 9 1 8 10 CFG=1
M  V30 10 2 9 11
M  V30 11 1 9 12
M  V30 12 1 10 13
M  V30 13 1 11 14
M  V30 14 2 12 15
M  V30 15 1 13 16
M  V30 16 2 14 17
M  V30 17 1 16 18
M  V30 18 1 16 19
M  V30 19 1 6 7
M  V30 20 1 15 17
M  V30 END BOND
M  V30 BEGIN COLLECTION
M  V30 MDLV30/STERAC1 ATOMS=(1 8)
M  V30 END COLLECTION
M  V30 END CTAB
M  END
>  <Molecule Name>


>  <status>
-

>  <cas>
25523-97-1

>  <name>
DEXCHLORPHENIRAMINE

>  <ID>
79

>  <Smiles>
CN(C)CCC(c(cc1)ccc1Cl)c1ncccc1

$$$$

Actelion Java MolfileCreator 2.0

  0  0  0  0  0  0              0 V3000
M  V30 BEGIN CTAB
M  V30 COUNTS 15 15 0 0 0
M  V30 BEGIN ATOM
M  V30 1 O 3.8971 1.5 0.0 0
M  V30 2 C 3.8971 0.0 0.0 0
M  V30 3 N 5.1961 -0.75 0.0 0
M  V30 4 C 2.598 -0.75 0.0 0
M  V30 5 C 5.1961 -2.25 0.0 0
M  V30 6 C 6.4951 0.0 0.0 0
M  V30 7 C 1.299 0.0 0.0 0
M  V30 8 C 3.8971 -2.9999 0.0 0
M  V30 9 C 6.4951 -3.0 0.0 0
M  V30 10 C 7.7942 -0.75 0.0 0
M  V30 11 C 0.0 -0.75 0.0 0
M  V30 12 C 3.8971 -4.5 0.0 0
M  V30 13 C 2.598 -2.2499 0.0 0
M  V30 14 C 6.4951 -4.5 0.0 0
M  V30 15 C 5.1961 -5.25 0.0 0
M  V30 END ATOM
M  V30 BEGIN BOND
M  V30 1 2 1 2
M  V30 2 1 2 3
M  V30 3 1 2 4
M  V30 4 1 3 5
M  V30 5 1 3 6
M  V30 6 2 4 7
M  V30 7 2 5 8
M  V30 8 1 5 9
M  V30 9 1 6 10
M  V30 10 1 7 11
M  V30 11 1 8 12
M  V30 12 1 8 13
M  V30 13 2 9 14
M  V30 14 2 12 15
M  V30 15 1 14 15
M  V30 END BOND
M  V30 END CTAB
M  END
>  <Molecule Name>


>  <status>
-

>  <cas>
483-63-6

>  <name>
CROTAMITON

>  <ID>
80

>  <Smiles>
CCN(C(/C=C/C)=O)c1c(C)cccc1

$$$$

Actelion Java MolfileCreator 2.0

  0  0  0  0  0  0              0 V3000
M  V30 BEGIN CTAB
M  V30 COUNTS 28 30 0 0 0
M  V30 BEGIN ATOM
M  V30 1 S 2.598 -0.75 0.0 0
M  V30 2 O 1.848 -2.049 0.0 0
M  V30 3 O 3.348 -2.049 0.0 0
M  V30 4 N 1.299 0.0 0.0 0
M  V30 5 C 3.8971 0.0 0.0 0
M  V30 6 C 0.0 -0.75 0.0 0
M  V30 7 C 5.1961 -0.75 0.0 0
M  V30 8 C 3.8971 1.5 0.0 0
M  V30 9 N -1.299 0.0 0.0 0
M  V30 10 C 0.0 -2.25 0.0 0
M  V30 11 C 6.4952 0.0 0.0 0
M  V30 12 C 5.1961 2.25 0.0 0
M  V30 13 C -2.598 -0.75 0.0 0
M  V30 14 C -1.299 -3.0 0.0 0
M  V30 15 C 6.4952 1.5 0.0 0
M  V30 16 C -2.598 -2.25 0.0 0
M  V30 17 N 7.7942 2.25 0.0 0
M  V30 18 N 9.0932 1.5 0.0 0
M  V30 19 C 10.3923 2.25 0.0 0
M  V30 20 C 11.6913 1.5 0.0 0
M  V30 21 C 10.3923 3.75 0.0 0
M  V30 22 C 12.9904 2.25 0.0 0
M  V30 23 C 11.6913 4.5 0.0 0
M  V30 24 C 12.9904 3.75 0.0 0
M  V30 25 C 14.2894 1.5 0.0 0
M  V30 26 O 14.2894 4.5 0.0 0
M  V30 27 O 14.2894 0.0 0.0 0
M  V30 28 O 15.5884 2.25 0.0 0 CHG=-1
M  V30 END ATOM
M  V30 BEGIN BOND
M  V30 1 2 1 2
M  V30 2 2 1 3
M  V30 3 1 1 4
M  V30 4 1 1 5
M  V30 5 1 4 6
M  V30 6 2 5 7
M  V30 7 1 5 8
M  V30 8 2 6 9
M  V30 9 1 6 10
M  V30 10 1 7 11
M  V30 11 2 8 12
M  V30 12 1 9 13
M  V30 13 2 10 14
M  V30 14 2 11 15
M  V30 15 2 13 16
M  V30 16 1 15 17
M  V30 17 1 17 18
M  V30 18 2 18 19
M  V30 19 1 19 20
M  V30 20 1 19 21
M  V30 21 2 20 22
M  V30 22 2 21 23
M  V30 23 1 22 24
M  V30 24 1 22 25
M  V30 25 2 24 26
M  V30 26 2 25 27
M  V30 27 1 25 28
M  V30 28 1 12 15
M  V30 29 1 14 16
M  V30 30 1 23 24
M  V30 END BOND
M  V30 END CTAB
M  END
>  <Molecule Name>


>  <status>
-

>  <cas>
599-79-1

>  <name>
SULFASALAZINE

>  <ID>
81

>  <Smiles>
[O-]C(C(C(C=C1)=O)=C/C1=N/Nc(cc1)ccc1S(Nc1ncccc1)(=O)=O)=O

$$$$

Actelion Java MolfileCreator 2.0

  0  0  0  0  0  0              0 V3000
M  V30 BEGIN CTAB
M  V30 COUNTS 29 32 0 0 0
M  V30 BEGIN ATOM
M  V30 1 O 12.476 -9.8549 0.0 0
M  V30 2 C 11.4688 -8.7362 0.0 0
M  V30 3 C 9.9963 -9.0492 0.0 0
M  V30 4 C 11.9339 -7.3045 0.0 0
M  V30 5 C 8.989 -7.9305 0.0 0
M  V30 6 C 10.9267 -6.1858 0.0 0
M  V30 7 C 9.4542 -6.4988 0.0 0 CFG=1
M  V30 8 C 7.5166 -8.2434 0.0 0
M  V30 9 C 8.447 -5.3801 0.0 0 CFG=2
M  V30 10 C 9.9194 -5.0672 0.0 0
M  V30 11 C 6.5093 -7.1248 0.0 0
M  V30 12 C 8.9121 -3.9485 0.0 0
M  V30 13 C 6.9745 -5.6931 0.0 0 CFG=2
M  V30 14 O 10.3846 -3.6355 0.0 0
M  V30 15 C 7.9049 -2.8298 0.0 0
M  V30 16 C 5.9672 -4.5744 0.0 0 CFG=2
M  V30 17 C 6.4324 -3.1428 0.0 0 CFG=2
M  V30 18 C 4.4619 -4.5744 0.0 0
M  V30 19 C 5.2146 -2.258 0.0 0 CFG=2
M  V30 20 C 6.866 -1.7312 0.0 0
M  V30 21 C 3.9967 -3.1428 0.0 0
M  V30 22 O 6.3147 -1.4527 0.0 0
M  V30 23 C 5.2146 -0.7526 0.0 0
M  V30 24 O 6.5182 0.0 0.0 0
M  V30 25 C 3.9109 0.0 0.0 0
M  V30 26 O 2.6073 -0.7526 0.0 0
M  V30 27 C 1.3036 0.0 0.0 0
M  V30 28 O 1.3036 1.5053 0.0 0
M  V30 29 C 0.0 -0.7526 0.0 0
M  V30 END ATOM
M  V30 BEGIN BOND
M  V30 1 2 1 2
M  V30 2 1 2 3
M  V30 3 1 2 4
M  V30 4 2 3 5
M  V30 5 1 4 6
M  V30 6 1 7 5
M  V30 7 1 5 8
M  V30 8 1 9 7
M  V30 9 1 7 10 CFG=1
M  V30 10 1 8 11
M  V30 11 1 9 12 CFG=1
M  V30 12 1 13 9
M  V30 13 2 12 14
M  V30 14 1 12 15
M  V30 15 1 16 13
M  V30 16 1 17 15
M  V30 17 1 16 18 CFG=1
M  V30 18 1 19 17
M  V30 19 1 17 20 CFG=1
M  V30 20 1 18 21
M  V30 21 1 19 22 CFG=3
M  V30 22 1 19 23
M  V30 23 2 23 24
M  V30 24 1 23 25
M  V30 25 1 25 26
M  V30 26 1 26 27
M  V30 27 2 27 28
M  V30 28 1 27 29
M  V30 29 1 6 7
M  V30 30 1 13 11 CFG=3
M  V30 31 1 16 17
M  V30 32 1 19 21
M  V30 END BOND
M  V30 BEGIN COLLECTION
M  V30 MDLV30/STERAC1 ATOMS=(6 7 9 13 16 17 19)
M  V30 END COLLECTION
M  V30 END CTAB
M  END
>  <Molecule Name>


>  <status>
-

>  <cas>
50-04-4

>  <name>
CORTISONE ACETATE

>  <ID>
82

>  <Smiles>
C[C@@](C1)([C@H](CC2)[C@@H](CCC([C@@]3(C)CC4)=CC4=O)[C@H]3C1=O)[C@@]2(C(COC(C)=O)=O)O

$$$$

Actelion Java MolfileCreator 2.0

  0  0  0  0  0  0              0 V3000
M  V30 BEGIN CTAB
M  V30 COUNTS 17 17 0 0 0
M  V30 BEGIN ATOM
M  V30 1 O 6.0621 0.0 0.0 0
M  V30 2 C 5.1961 -0.5 0.0 0
M  V30 3 N 4.3301 0.0 0.0 0
M  V30 4 C 5.1961 -1.4999 0.0 0
M  V30 5 C 3.4641 -0.5 0.0 0
M  V30 6 C 4.3301 -1.9999 0.0 0
M  V30 7 C 6.0621 -2.0 0.0 0
M  V30 8 C 2.598 0.0 0.0 0
M  V30 9 C 4.3301 -2.9999 0.0 0
M  V30 10 C 6.0621 -3.0 0.0 0
M  V30 11 N 1.732 -0.5 0.0 0
M  V30 12 C 5.1961 -3.5 0.0 0
M  V30 13 C 1.732 -1.5 0.0 0
M  V30 14 C 0.866 0.0 0.0 0
M  V30 15 N 5.1961 -4.5 0.0 0
M  V30 16 C 2.598 -1.9999 0.0 0
M  V30 17 C 0.0 -0.5 0.0 0
M  V30 END ATOM
M  V30 BEGIN BOND
M  V30 1 2 1 2
M  V30 2 1 2 3
M  V30 3 1 2 4
M  V30 4 1 3 5
M  V30 5 2 4 6
M  V30 6 1 4 7
M  V30 7 1 5 8
M  V30 8 1 6 9
M  V30 9 2 7 10
M  V30 10 1 8 11
M  V30 11 2 9 12
M  V30 12 1 11 13
M  V30 13 1 11 14
M  V30 14 1 12 15
M  V30 15 1 13 16
M  V30 16 1 14 17
M  V30 17 1 10 12
M  V30 END BOND
M  V30 END CTAB
M  END
>  <Molecule Name>


>  <status>
-

>  <cas>
51-06-9

>  <name>
PROCAINAMIDE

>  <ID>
83

>  <Smiles>
CCN(CC)CCNC(c(cc1)ccc1N)=O

$$$$

Actelion Java MolfileCreator 2.0

  0  0  0  0  0  0              0 V3000
M  V30 BEGIN CTAB
M  V30 COUNTS 13 13 0 0 0
M  V30 BEGIN ATOM
M  V30 1 O 1.732 2.5 0.0 0
M  V30 2 C 1.732 1.4999 0.0 0
M  V30 3 O 0.866 1.0 0.0 0 CHG=-1
M  V30 4 C 2.598 1.0 0.0 0
M  V30 5 C 2.598 0.0 0.0 0
M  V30 6 C 3.4641 1.4999 0.0 0
M  V30 7 O 1.732 -0.5 0.0 0
M  V30 8 C 3.4641 -0.5 0.0 0
M  V30 9 C 4.3301 1.0 0.0 0
M  V30 10 C 1.732 -1.5 0.0 0
M  V30 11 C 4.3301 0.0 0.0 0
M  V30 12 O 2.598 -2.0 0.0 0
M  V30 13 C 0.866 -2.0 0.0 0
M  V30 END ATOM
M  V30 BEGIN BOND
M  V30 1 2 1 2
M  V30 2 1 2 3
M  V30 3 1 2 4
M  V30 4 2 4 5
M  V30 5 1 4 6
M  V30 6 1 5 7
M  V30 7 1 5 8
M  V30 8 2 6 9
M  V30 9 1 7 10
M  V30 10 2 8 11
M  V30 11 2 10 12
M  V30 12 1 10 13
M  V30 13 1 9 11
M  V30 END BOND
M  V30 END CTAB
M  END
>  <Molecule Name>


>  <status>
-

>  <cas>
50-78-2

>  <name>
ASPIRIN

>  <ID>
84

>  <Smiles>
CC(Oc(cccc1)c1C([O-])=O)=O

$$$$

Actelion Java MolfileCreator 2.0

  0  0  0  0  0  0              0 V3000
M  V30 BEGIN CTAB
M  V30 COUNTS 23 27 0 0 0
M  V30 BEGIN ATOM
M  V30 1 O 4.5846 2.5057 0.0 0
M  V30 2 C 4.7841 1.5258 0.0 0
M  V30 3 C 4.0353 0.8631 0.0 0 CFG=1
M  V30 4 C 5.7325 1.2086 0.0 0
M  V30 5 O 3.0417 0.9761 0.0 0
M  V30 6 C 4.2348 -0.1167 0.0 0 CFG=1
M  V30 7 C 5.8819 0.1675 0.0 0
M  V30 8 C 2.6271 0.0661 0.0 0
M  V30 9 C 3.3645 -0.6093 0.0 0
M  V30 10 C 5.1832 -0.4339 0.0 0 CFG=1
M  V30 11 C 5.3053 0.7155 0.0 0
M  V30 12 C 1.732 -0.5 0.0 0
M  V30 13 C 3.5108 -1.631 0.0 0
M  V30 14 O 5.9937 -0.7959 0.0 0
M  V30 15 C 5.2348 -1.4648 0.0 0 CFG=2
M  V30 16 C 6.3201 0.3409 0.0 0
M  V30 17 O 0.866 0.0 0.0 0
M  V30 18 C 1.6917 -1.4991 0.0 0
M  V30 19 C 2.5368 -2.0337 0.0 0
M  V30 20 C 4.4208 -2.0456 0.0 0
M  V30 21 N 6.4023 -0.6577 0.0 0
M  V30 22 C 0.0 -0.5 0.0 0
M  V30 23 C 7.2498 -1.0886 0.0 0
M  V30 END ATOM
M  V30 BEGIN BOND
M  V30 1 2 1 2
M  V30 2 1 3 2
M  V30 3 1 2 4
M  V30 4 1 3 5 CFG=3
M  V30 5 1 6 3
M  V30 6 1 4 7
M  V30 7 1 5 8
M  V30 8 1 6 9
M  V30 9 1 10 6
M  V30 10 1 6 11 CFG=1
M  V30 11 1 8 12
M  V30 12 1 9 13
M  V30 13 1 10 14 CFG=1
M  V30 14 1 15 10
M  V30 15 1 11 16
M  V30 16 1 12 17
M  V30 17 2 12 18
M  V30 18 2 13 19
M  V30 19 1 13 20
M  V30 20 1 15 21 CFG=1
M  V30 21 1 17 22
M  V30 22 1 21 23
M  V30 23 1 7 10
M  V30 24 2 8 9
M  V30 25 1 15 20
M  V30 26 1 16 21
M  V30 27 1 18 19
M  V30 END BOND
M  V30 BEGIN COLLECTION
M  V30 MDLV30/STERAC1 ATOMS=(4 3 6 10 15)
M  V30 END COLLECTION
M  V30 END CTAB
M  END
>  <Molecule Name>


>  <status>
-

>  <cas>
76-42-6

>  <name>
OXYCODONE

>  <ID>
85

>  <Smiles>
CN(CC[C@@]12c(c(C3)ccc4OC)c4O[C@@H]2C(CC2)=O)[C@@H]3[C@]12O

$$$$

Actelion Java MolfileCreator 2.0

  0  0  0  0  0  0              0 V3000
M  V30 BEGIN CTAB
M  V30 COUNTS 17 17 0 0 0
M  V30 BEGIN ATOM
M  V30 1 O 0.0 3.7762 0.0 0
M  V30 2 C 1.3081 3.0209 0.0 0
M  V30 3 N 1.3081 1.5104 0.0 0
M  V30 4 N 2.6162 3.7762 0.0 0
M  V30 5 C 2.6162 0.7552 0.0 0
M  V30 6 C 3.9243 3.0209 0.0 0
M  V30 7 O 2.4827 -0.6217 0.0 0
M  V30 8 C 3.9243 1.5104 0.0 0
M  V30 9 O 5.2325 3.7762 0.0 0
M  V30 10 C 3.9243 0.0 0.0 0 CFG=2
M  V30 11 C 5.2325 0.7552 0.0 0
M  V30 12 C 5.2325 -0.7552 0.0 0
M  V30 13 C 2.8832 -1.0222 0.0 0
M  V30 14 C 6.5406 1.5104 0.0 0
M  V30 15 C 6.5406 0.0 0.0 0
M  V30 16 C 7.8487 0.7552 0.0 0
M  V30 17 C 7.8487 -0.7552 0.0 0
M  V30 END ATOM
M  V30 BEGIN BOND
M  V30 1 2 1 2
M  V30 2 1 2 3
M  V30 3 1 2 4
M  V30 4 1 3 5
M  V30 5 1 4 6
M  V30 6 2 5 7
M  V30 7 1 5 8
M  V30 8 2 6 9
M  V30 9 1 10 8
M  V30 10 1 8 11
M  V30 11 1 10 12
M  V30 12 1 10 13 CFG=3
M  V30 13 1 11 14
M  V30 14 1 12 15
M  V30 15 2 14 16
M  V30 16 1 15 17
M  V30 17 1 6 8
M  V30 END BOND
M  V30 BEGIN COLLECTION
M  V30 MDLV30/STERAC1 ATOMS=(1 10)
M  V30 END COLLECTION
M  V30 END CTAB
M  END
>  <Molecule Name>


>  <status>
DISCONTINUED

>  <cas>
76-73-3

>  <name>
SECOBARBITAL

>  <ID>
86

>  <Smiles>
CCCC(C)C(CC=C)(C(NC(N1)=O)=O)C1=O

$$$$

Actelion Java MolfileCreator 2.0

  0  0  0  0  0  0              0 V3000
M  V30 BEGIN CTAB
M  V30 COUNTS 22 23 0 0 0
M  V30 BEGIN ATOM
M  V30 1 O 8.9452 0.3319 0.0 0
M  V30 2 C 7.8191 -0.7523 0.0 0
M  V30 3 O 6.5159 0.0 0.0 0
M  V30 4 C 7.8191 -2.2571 0.0 0
M  V30 5 C 5.2127 -0.7523 0.0 0
M  V30 6 C 9.1222 -1.5047 0.0 0
M  V30 7 C 6.5159 -3.0095 0.0 0
M  V30 8 C 9.1222 -3.0095 0.0 0
M  V30 9 C 3.9095 0.0 0.0 0
M  V30 10 C 10.4254 -2.2571 0.0 0
M  V30 11 C 9.2577 -0.1406 0.0 0
M  V30 12 C 6.5159 -4.5143 0.0 0
M  V30 13 C 9.1222 -4.5143 0.0 0
M  V30 14 N 2.6063 -0.7523 0.0 0
M  V30 15 C 11.7286 -1.5047 0.0 0
M  V30 16 C 10.4254 0.7523 0.0 0
M  V30 17 C 7.8191 -5.2667 0.0 0
M  V30 18 C 2.6063 -2.2571 0.0 0
M  V30 19 C 1.3031 0.0 0.0 0
M  V30 20 C 11.7286 0.0 0.0 0
M  V30 21 C 3.9095 -3.0095 0.0 0
M  V30 22 C 0.0 -0.7523 0.0 0
M  V30 END ATOM
M  V30 BEGIN BOND
M  V30 1 2 1 2
M  V30 2 1 2 3
M  V30 3 1 2 4
M  V30 4 1 3 5
M  V30 5 1 4 6
M  V30 6 1 4 7
M  V30 7 1 4 8
M  V30 8 1 5 9
M  V30 9 1 6 10
M  V30 10 1 6 11
M  V30 11 1 7 12
M  V30 12 1 8 13
M  V30 13 1 9 14
M  V30 14 1 10 15
M  V30 15 1 11 16
M  V30 16 1 12 17
M  V30 17 1 14 18
M  V30 18 1 14 19
M  V30 19 1 15 20
M  V30 20 1 18 21
M  V30 21 1 19 22
M  V30 22 1 13 17
M  V30 23 1 16 20
M  V30 END BOND
M  V30 END CTAB
M  END
>  <Molecule Name>


>  <status>
-

>  <cas>
77-19-0

>  <name>
DICYCLOMINE

>  <ID>
87

>  <Smiles>
CCN(CC)CCOC(C1(CCCCC1)C1CCCCC1)=O

$$$$

Actelion Java MolfileCreator 2.0

  0  0  0  0  0  0              0 V3000
M  V30 BEGIN CTAB
M  V30 COUNTS 7 7 0 0 0
M  V30 BEGIN ATOM
M  V30 1 S 0.866 0.0 0.0 0
M  V30 2 C 0.0 -0.5 0.0 0
M  V30 3 N -0.9135 -0.0932 0.0 0
M  V30 4 N -0.1045 -1.4945 0.0 0
M  V30 5 C -1.5826 -0.8364 0.0 0
M  V30 6 C -1.1214 0.8848 0.0 0
M  V30 7 C -1.0826 -1.7024 0.0 0
M  V30 END ATOM
M  V30 BEGIN BOND
M  V30 1 2 1 2
M  V30 2 1 2 3
M  V30 3 1 2 4
M  V30 4 1 3 5
M  V30 5 1 3 6
M  V30 6 1 4 7
M  V30 7 2 5 7
M  V30 END BOND
M  V30 END CTAB
M  END
>  <Molecule Name>


>  <status>
-

>  <cas>
60-56-0

>  <name>
METHIMAZOLE

>  <ID>
88

>  <Smiles>
CN(C=CN1)C1=S

$$$$

Actelion Java MolfileCreator 2.0

  0  0  0  0  0  0              0 V3000
M  V30 BEGIN CTAB
M  V30 COUNTS 24 27 0 0 0
M  V30 BEGIN ATOM
M  V30 1 O 0.866 0.0 0.0 0
M  V30 2 C 1.732 -0.5 0.0 0
M  V30 3 C 0.0 -0.5 0.0 0
M  V30 4 C 1.732 -1.5 0.0 0
M  V30 5 C 2.598 0.0 0.0 0
M  V30 6 C 2.598 -2.0 0.0 0
M  V30 7 C 3.4641 -0.5 0.0 0
M  V30 8 C 3.4641 -1.5 0.0 0
M  V30 9 C 2.598 -3.0 0.0 0
M  V30 10 N 4.3301 -2.0 0.0 0
M  V30 11 C 3.4641 -3.5 0.0 0
M  V30 12 C 1.732 -3.4999 0.0 0 CFG=2
M  V30 13 C 4.3301 -3.0 0.0 0
M  V30 14 O 0.866 -2.9999 0.0 0
M  V30 15 C 1.732 -4.4999 0.0 0 CFG=2
M  V30 16 N 0.866 -4.9999 0.0 0 CFG=2
M  V30 17 C 2.598 -5.0 0.0 0
M  V30 18 C 0.9921 -6.0312 0.0 0
M  V30 19 C 0.433 -6.7499 0.0 0
M  V30 20 C 2.598 -6.0 0.0 0 CFG=1
M  V30 21 C 1.6391 -6.4012 0.0 0 CFG=1
M  V30 22 C 1.268 -7.2502 0.0 0
M  V30 23 C 1.7388 -7.507 0.0 0
M  V30 24 C 2.598 -8.0 0.0 0
M  V30 END ATOM
M  V30 BEGIN BOND
M  V30 1 1 1 2
M  V30 2 1 1 3
M  V30 3 2 2 4
M  V30 4 1 2 5
M  V30 5 1 4 6
M  V30 6 2 5 7
M  V30 7 1 6 8
M  V30 8 2 6 9
M  V30 9 2 8 10
M  V30 10 1 9 11
M  V30 11 1 12 9
M  V30 12 1 10 13
M  V30 13 1 12 14 CFG=1
M  V30 14 1 15 12
M  V30 15 1 16 15
M  V30 16 1 15 17 CFG=1
M  V30 17 1 16 18 CFG=1
M  V30 18 1 16 19
M  V30 19 1 20 17 CFG=3
M  V30 20 1 21 18
M  V30 21 1 19 22
M  V30 22 1 21 23 CFG=1
M  V30 23 2 23 24
M  V30 24 1 7 8
M  V30 25 2 11 13
M  V30 26 1 20 21
M  V30 27 1 20 22
M  V30 END BOND
M  V30 BEGIN COLLECTION
M  V30 MDLV30/STERAC1 ATOMS=(5 12 15 16 20 21)
M  V30 END COLLECTION
M  V30 END CTAB
M  END
>  <Molecule Name>


>  <status>
-

>  <cas>
56-54-2

>  <name>
QUINIDINE

>  <ID>
89

>  <Smiles>
COc1cc2c([C@@H]([C@@H](C[C@@H]3CC4)N4C[C@@H]3C=C)O)ccnc2cc1

$$$$

Actelion Java MolfileCreator 2.0

  0  0  0  0  0  0              0 V3000
M  V30 BEGIN CTAB
M  V30 COUNTS 17 17 0 0 0
M  V30 BEGIN ATOM
M  V30 1 S 0.0 3.7762 0.0 0
M  V30 2 C 1.3081 3.0209 0.0 0
M  V30 3 N 1.3081 1.5104 0.0 0
M  V30 4 N 2.6162 3.7762 0.0 0
M  V30 5 C 2.6162 0.7552 0.0 0
M  V30 6 C 3.9243 3.0209 0.0 0
M  V30 7 O 2.4827 -0.6217 0.0 0
M  V30 8 C 3.9243 1.5104 0.0 0 CFG=2
M  V30 9 O 5.2325 3.7762 0.0 0
M  V30 10 C 3.9243 0.0 0.0 0 CFG=2
M  V30 11 C 5.2325 0.7552 0.0 0
M  V30 12 C 5.2325 -0.7552 0.0 0
M  V30 13 C 2.8832 -1.0222 0.0 0
M  V30 14 C 6.5406 1.5104 0.0 0
M  V30 15 C 6.5406 0.0 0.0 0
M  V30 16 C 7.8487 0.7552 0.0 0
M  V30 17 C 7.8487 -0.7552 0.0 0
M  V30 END ATOM
M  V30 BEGIN BOND
M  V30 1 1 1 2
M  V30 2 2 2 3
M  V30 3 1 2 4
M  V30 4 1 3 5
M  V30 5 1 4 6
M  V30 6 2 5 7
M  V30 7 1 8 5
M  V30 8 2 6 9
M  V30 9 1 8 10 CFG=3
M  V30 10 1 8 11
M  V30 11 1 10 12
M  V30 12 1 10 13 CFG=3
M  V30 13 1 11 14
M  V30 14 1 12 15
M  V30 15 2 14 16
M  V30 16 1 15 17
M  V30 17 1 6 8
M  V30 END BOND
M  V30 BEGIN COLLECTION
M  V30 MDLV30/STERAC1 ATOMS=(2 8 10)
M  V30 END COLLECTION
M  V30 END CTAB
M  END
>  <Molecule Name>


>  <status>
DISCONTINUED

>  <cas>
77-27-0

>  <name>
THIAMYLAL

>  <ID>
90

>  <Smiles>
CCC[C@H](C)[C@@](CC=C)(C(NC(S)=N1)=O)C1=O

$$$$

Actelion Java MolfileCreator 2.0

  0  0  0  0  0  0              0 V3000
M  V30 BEGIN CTAB
M  V30 COUNTS 17 17 0 0 0
M  V30 BEGIN ATOM
M  V30 1 S 0.0 3.7762 0.0 0
M  V30 2 C 1.3081 3.0209 0.0 0
M  V30 3 N 1.3081 1.5104 0.0 0
M  V30 4 N 2.6162 3.7762 0.0 0
M  V30 5 C 2.6162 0.7552 0.0 0
M  V30 6 C 3.9243 3.0209 0.0 0
M  V30 7 O 2.4827 -0.6217 0.0 0
M  V30 8 C 3.9243 1.5104 0.0 0 CFG=2
M  V30 9 O 5.2325 3.7762 0.0 0
M  V30 10 C 3.9243 0.0 0.0 0 CFG=1
M  V30 11 C 5.2325 0.7552 0.0 0
M  V30 12 C 5.2325 -0.7552 0.0 0
M  V30 13 C 2.8832 -1.0222 0.0 0
M  V30 14 C 6.5406 1.5104 0.0 0
M  V30 15 C 6.5406 0.0 0.0 0
M  V30 16 C 7.8487 0.7552 0.0 0
M  V30 17 C 7.8487 -0.7552 0.0 0
M  V30 END ATOM
M  V30 BEGIN BOND
M  V30 1 1 1 2
M  V30 2 2 2 3
M  V30 3 1 2 4
M  V30 4 1 3 5
M  V30 5 1 4 6
M  V30 6 2 5 7
M  V30 7 1 8 5
M  V30 8 2 6 9
M  V30 9 1 8 10 CFG=3
M  V30 10 1 8 11
M  V30 11 1 10 12
M  V30 12 1 10 13 CFG=1
M  V30 13 1 11 14
M  V30 14 1 12 15
M  V30 15 2 14 16
M  V30 16 1 15 17
M  V30 17 1 6 8
M  V30 END BOND
M  V30 BEGIN COLLECTION
M  V30 MDLV30/STERAC1 ATOMS=(2 8 10)
M  V30 END COLLECTION
M  V30 END CTAB
M  END
>  <Molecule Name>


>  <status>
DISCONTINUED

>  <cas>
77-27-0

>  <name>
THIAMYLAL

>  <ID>
91

>  <Smiles>
CCC[C@@H](C)[C@@](CC=C)(C(NC(S)=N1)=O)C1=O

$$$$

Actelion Java MolfileCreator 2.0

  0  0  0  0  0  0              0 V3000
M  V30 BEGIN CTAB
M  V30 COUNTS 13 13 0 0 0
M  V30 BEGIN ATOM
M  V30 1 O 6.4951 0.0 0.0 0
M  V30 2 C 5.1961 -0.75 0.0 0
M  V30 3 N 3.8971 0.0 0.0 0
M  V30 4 N 5.1961 -2.25 0.0 0
M  V30 5 C 2.598 -0.75 0.0 0
M  V30 6 O 2.598 -2.25 0.0 0
M  V30 7 C 1.299 0.0 0.0 0
M  V30 8 C 0.0 -0.75 0.0 0
M  V30 9 C -1.299 0.0 0.0 0
M  V30 10 C 0.0 -2.2499 0.0 0
M  V30 11 C -2.598 -0.7499 0.0 0
M  V30 12 C -1.299 -2.9999 0.0 0
M  V30 13 C -2.598 -2.2499 0.0 0
M  V30 END ATOM
M  V30 BEGIN BOND
M  V30 1 2 1 2
M  V30 2 1 2 3
M  V30 3 1 2 4
M  V30 4 1 3 5
M  V30 5 2 5 6
M  V30 6 1 5 7
M  V30 7 1 7 8
M  V30 8 2 8 9
M  V30 9 1 8 10
M  V30 10 1 9 11
M  V30 11 2 10 12
M  V30 12 2 11 13
M  V30 13 1 12 13
M  V30 END BOND
M  V30 END CTAB
M  END
>  <Molecule Name>


>  <status>
DISCONTINUED

>  <cas>
63-98-9

>  <name>
PHENACEMIDE

>  <ID>
92

>  <Smiles>
NC(NC(Cc1ccccc1)=O)=O

$$$$

Actelion Java MolfileCreator 2.0

  0  0  0  0  0  0              0 V3000
M  V30 BEGIN CTAB
M  V30 COUNTS 18 19 0 0 0
M  V30 BEGIN ATOM
M  V30 1 O 7.312 0.5304 0.0 0
M  V30 2 C 6.3339 0.3225 0.0 0
M  V30 3 N 5.6648 1.0657 0.0 0
M  V30 4 N 6.0249 -0.6284 0.0 0
M  V30 5 C 4.6866 0.8577 0.0 0
M  V30 6 C 5.9738 2.0167 0.0 0
M  V30 7 C 5.0467 -0.8364 0.0 0
M  V30 8 C 6.694 -1.3716 0.0 0
M  V30 9 O 4.0175 1.6009 0.0 0
M  V30 10 C 4.3776 -0.0932 0.0 0
M  V30 11 N 4.5467 -1.7024 0.0 0
M  V30 12 N 3.4641 -0.5 0.0 0
M  V30 13 C 3.5686 -1.4945 0.0 0
M  V30 14 C 2.598 0.0 0.0 0
M  V30 15 C 1.732 -0.5 0.0 0 CFG=2
M  V30 16 O 1.732 -1.5 0.0 0
M  V30 17 C 0.866 0.0 0.0 0
M  V30 18 O 0.0 -0.5 0.0 0
M  V30 END ATOM
M  V30 BEGIN BOND
M  V30 1 2 1 2
M  V30 2 1 2 3
M  V30 3 1 2 4
M  V30 4 1 3 5
M  V30 5 1 3 6
M  V30 6 1 4 7
M  V30 7 1 4 8
M  V30 8 2 5 9
M  V30 9 1 5 10
M  V30 10 1 7 11
M  V30 11 1 10 12
M  V30 12 2 11 13
M  V30 13 1 12 14
M  V30 14 1 15 14
M  V30 15 1 15 16 CFG=3
M  V30 16 1 15 17
M  V30 17 1 17 18
M  V30 18 2 7 10
M  V30 19 1 12 13
M  V30 END BOND
M  V30 BEGIN COLLECTION
M  V30 MDLV30/STERAC1 ATOMS=(1 15)
M  V30 END COLLECTION
M  V30 END CTAB
M  END
>  <Molecule Name>


>  <status>
DISCONTINUED

>  <cas>
479-18-5

>  <name>
DYPHYLLINE

>  <ID>
93

>  <Smiles>
CN(c1c(C(N2C)=O)n(CC(CO)O)cn1)C2=O

$$$$

Actelion Java MolfileCreator 2.0

  0  0  0  0  0  0              0 V3000
M  V30 BEGIN CTAB
M  V30 COUNTS 30 30 0 0 0
M  V30 BEGIN ATOM
M  V30 1 O 4.3301 0.0 0.0 0
M  V30 2 C 5.1961 -0.5 0.0 0
M  V30 3 C 3.4641 -0.5 0.0 0
M  V30 4 C 5.1961 -1.5 0.0 0
M  V30 5 C 6.0621 0.0 0.0 0
M  V30 6 C 2.598 0.0 0.0 0
M  V30 7 O 4.3301 -1.9999 0.0 0
M  V30 8 C 6.0621 -2.0 0.0 0
M  V30 9 O 6.0621 0.9999 0.0 0
M  V30 10 C 6.9282 -0.5 0.0 0
M  V30 11 N 1.732 -0.5 0.0 0
M  V30 12 C 4.3301 -2.9999 0.0 0
M  V30 13 C 6.9282 -1.5 0.0 0
M  V30 14 C 5.1961 1.4999 0.0 0
M  V30 15 C 1.732 -1.5 0.0 0
M  V30 16 C 0.866 0.0 0.0 0
M  V30 17 C 3.4641 -3.4999 0.0 0
M  V30 18 C 5.1961 2.4999 0.0 0
M  V30 19 C 2.598 -1.9999 0.0 0
M  V30 20 C 0.0 -0.5 0.0 0
M  V30 21 N 3.4641 -4.4999 0.0 0
M  V30 22 N 4.3301 2.9999 0.0 0
M  V30 23 C 4.3301 -5.0 0.0 0
M  V30 24 C 2.598 -5.0 0.0 0
M  V30 25 C 3.4641 2.4999 0.0 0
M  V30 26 C 4.3301 3.9999 0.0 0
M  V30 27 C 5.1961 -4.5 0.0 0
M  V30 28 C 2.598 -5.9999 0.0 0
M  V30 29 C 3.4641 1.4999 0.0 0
M  V30 30 C 3.4641 4.5 0.0 0
M  V30 END ATOM
M  V30 BEGIN BOND
M  V30 1 1 1 2
M  V30 2 1 1 3
M  V30 3 2 2 4
M  V30 4 1 2 5
M  V30 5 1 3 6
M  V30 6 1 4 7
M  V30 7 1 4 8
M  V30 8 1 5 9
M  V30 9 2 5 10
M  V30 10 1 6 11
M  V30 11 1 7 12
M  V30 12 2 8 13
M  V30 13 1 9 14
M  V30 14 1 11 15
M  V30 15 1 11 16
M  V30 16 1 12 17
M  V30 17 1 14 18
M  V30 18 1 15 19
M  V30 19 1 16 20
M  V30 20 1 17 21
M  V30 21 1 18 22
M  V30 22 1 21 23
M  V30 23 1 21 24
M  V30 24 1 22 25
M  V30 25 1 22 26
M  V30 26 1 23 27
M  V30 27 1 24 28
M  V30 28 1 25 29
M  V30 29 1 26 30
M  V30 30 1 10 13
M  V30 END BOND
M  V30 END CTAB
M  END
>  <Molecule Name>


>  <status>
DISCONTINUED

>  <cas>
153-76-4

>  <name>
GALLAMINE

>  <ID>
94

>  <Smiles>
CCN(CC)CCOc1cccc(OCCN(CC)CC)c1OCCN(CC)CC

$$$$

Actelion Java MolfileCreator 2.0

  0  0  0  0  0  0              0 V3000
M  V30 BEGIN CTAB
M  V30 COUNTS 16 15 0 0 0
M  V30 BEGIN ATOM
M  V30 1 S 5.1961 -1.4999 0.0 0
M  V30 2 C 5.1961 -0.5 0.0 0
M  V30 3 S 4.3301 0.0 0.0 0
M  V30 4 N 6.0621 0.0 0.0 0
M  V30 5 S 3.4641 -0.5 0.0 0
M  V30 6 C 6.9282 -0.5 0.0 0
M  V30 7 C 6.0621 1.0 0.0 0
M  V30 8 C 2.598 0.0 0.0 0
M  V30 9 C 7.7942 0.0 0.0 0
M  V30 10 C 5.1961 1.5 0.0 0
M  V30 11 S 2.598 1.0 0.0 0
M  V30 12 N 1.732 -0.5 0.0 0
M  V30 13 C 1.732 -1.5 0.0 0
M  V30 14 C 0.866 0.0 0.0 0
M  V30 15 C 2.598 -1.9999 0.0 0
M  V30 16 C 0.0 -0.5 0.0 0
M  V30 END ATOM
M  V30 BEGIN BOND
M  V30 1 2 1 2
M  V30 2 1 2 3
M  V30 3 1 2 4
M  V30 4 1 3 5
M  V30 5 1 4 6
M  V30 6 1 4 7
M  V30 7 1 5 8
M  V30 8 1 6 9
M  V30 9 1 7 10
M  V30 10 2 8 11
M  V30 11 1 8 12
M  V30 12 1 12 13
M  V30 13 1 12 14
M  V30 14 1 13 15
M  V30 15 1 14 16
M  V30 END BOND
M  V30 END CTAB
M  END
>  <Molecule Name>


>  <status>
-

>  <cas>
97-77-8

>  <name>
DISULFIRAM

>  <ID>
95

>  <Smiles>
CCN(CC)C(SSC(N(CC)CC)=S)=S

$$$$

Actelion Java MolfileCreator 2.0

  0  0  0  0  0  0              0 V3000
M  V30 BEGIN CTAB
M  V30 COUNTS 19 19 0 0 0
M  V30 BEGIN ATOM
M  V30 1 S 3.8971 1.5 0.0 0
M  V30 2 O 5.397 1.4999 0.0 0
M  V30 3 O 4.647 2.799 0.0 0
M  V30 4 N 3.8971 0.0 0.0 0
M  V30 5 C 2.598 2.25 0.0 0
M  V30 6 C 5.1961 -0.75 0.0 0
M  V30 7 C 2.598 -0.75 0.0 0
M  V30 8 C 2.598 3.75 0.0 0
M  V30 9 C 1.299 1.5 0.0 0
M  V30 10 C 6.4952 0.0 0.0 0
M  V30 11 C 1.299 0.0 0.0 0
M  V30 12 C 1.299 4.5 0.0 0
M  V30 13 C 0.0 2.25 0.0 0
M  V30 14 C 7.7942 -0.75 0.0 0
M  V30 15 C 0.0 -0.75 0.0 0
M  V30 16 C 0.0 3.75 0.0 0
M  V30 17 C -1.299 4.5 0.0 0
M  V30 18 O -1.299 6.0 0.0 0
M  V30 19 O -2.598 3.75 0.0 0 CHG=-1
M  V30 END ATOM
M  V30 BEGIN BOND
M  V30 1 2 1 2
M  V30 2 2 1 3
M  V30 3 1 1 4
M  V30 4 1 1 5
M  V30 5 1 4 6
M  V30 6 1 4 7
M  V30 7 2 5 8
M  V30 8 1 5 9
M  V30 9 1 6 10
M  V30 10 1 7 11
M  V30 11 1 8 12
M  V30 12 2 9 13
M  V30 13 1 10 14
M  V30 14 1 11 15
M  V30 15 2 12 16
M  V30 16 1 16 17
M  V30 17 2 17 18
M  V30 18 1 17 19
M  V30 19 1 13 16
M  V30 END BOND
M  V30 END CTAB
M  END
>  <Molecule Name>


>  <status>
-

>  <cas>
57-66-9

>  <name>
PROBENECID

>  <ID>
96

>  <Smiles>
CCCN(CCC)S(c(cc1)ccc1C([O-])=O)(=O)=O

$$$$

Actelion Java MolfileCreator 2.0

  0  0  0  0  0  0              0 V3000
M  V30 BEGIN CTAB
M  V30 COUNTS 20 22 0 0 0
M  V30 BEGIN ATOM
M  V30 1 S 7.7942 -2.2499 0.0 0
M  V30 2 C 7.7942 -0.75 0.0 0
M  V30 3 C 6.4951 -2.9999 0.0 0
M  V30 4 C 6.4951 0.0 0.0 0
M  V30 5 C 9.0932 0.0 0.0 0
M  V30 6 C 5.1961 -2.25 0.0 0
M  V30 7 C 6.4951 -4.5 0.0 0
M  V30 8 N 5.1961 -0.75 0.0 0
M  V30 9 C 6.4951 1.5 0.0 0
M  V30 10 C 9.0932 1.5 0.0 0
M  V30 11 C 3.8971 -3.0 0.0 0
M  V30 12 C 5.1961 -5.25 0.0 0
M  V30 13 C 3.8971 0.0 0.0 0
M  V30 14 C 7.7942 2.25 0.0 0
M  V30 15 C 3.8971 -4.5 0.0 0
M  V30 16 C 2.598 -0.75 0.0 0 CFG=1
M  V30 17 N 1.299 0.0 0.0 0
M  V30 18 C 2.598 -2.25 0.0 0
M  V30 19 C 1.299 1.5 0.0 0
M  V30 20 C 0.0 -0.75 0.0 0
M  V30 END ATOM
M  V30 BEGIN BOND
M  V30 1 1 1 2
M  V30 2 1 1 3
M  V30 3 2 2 4
M  V30 4 1 2 5
M  V30 5 2 3 6
M  V30 6 1 3 7
M  V30 7 1 4 8
M  V30 8 1 4 9
M  V30 9 2 5 10
M  V30 10 1 6 11
M  V30 11 2 7 12
M  V30 12 1 8 13
M  V30 13 2 9 14
M  V30 14 2 11 15
M  V30 15 1 16 13
M  V30 16 1 16 17 CFG=3
M  V30 17 1 16 18
M  V30 18 1 17 19
M  V30 19 1 17 20
M  V30 20 1 6 8
M  V30 21 1 10 14
M  V30 22 1 12 15
M  V30 END BOND
M  V30 BEGIN COLLECTION
M  V30 MDLV30/STERAC1 ATOMS=(1 16)
M  V30 END COLLECTION
M  V30 END CTAB
M  END
>  <Molecule Name>


>  <status>
-

>  <cas>
60-87-7

>  <name>
PROMETHAZINE

>  <ID>
97

>  <Smiles>
CC(CN1c(cccc2)c2Sc2c1cccc2)N(C)C

$$$$

Actelion Java MolfileCreator 2.0

  0  0  0  0  0  0              0 V3000
M  V30 BEGIN CTAB
M  V30 COUNTS 12 12 0 0 0
M  V30 BEGIN ATOM
M  V30 1 O 9.0932 0.0 0.0 0
M  V30 2 C 7.7942 -0.75 0.0 0
M  V30 3 C 6.4951 0.0 0.0 0
M  V30 4 C 7.7942 -2.2499 0.0 0
M  V30 5 C 5.1961 -0.75 0.0 0
M  V30 6 C 6.4951 -3.0 0.0 0
M  V30 7 C 5.1961 -2.2499 0.0 0
M  V30 8 C 3.8971 0.0 0.0 0 CFG=1
M  V30 9 O 3.8971 1.5 0.0 0
M  V30 10 C 2.598 -0.75 0.0 0
M  V30 11 N 1.299 0.0 0.0 0
M  V30 12 C 0.0 -0.75 0.0 0
M  V30 END ATOM
M  V30 BEGIN BOND
M  V30 1 1 1 2
M  V30 2 2 2 3
M  V30 3 1 2 4
M  V30 4 1 3 5
M  V30 5 2 4 6
M  V30 6 2 5 7
M  V30 7 1 8 5
M  V30 8 1 8 9 CFG=3
M  V30 9 1 8 10
M  V30 10 1 10 11
M  V30 11 1 11 12
M  V30 12 1 6 7
M  V30 END BOND
M  V30 BEGIN COLLECTION
M  V30 MDLV30/STERAC1 ATOMS=(1 8)
M  V30 END COLLECTION
M  V30 END CTAB
M  END
>  <Molecule Name>


>  <status>
-

>  <cas>
59-42-7

>  <name>
PHENYLEPHRINE

>  <ID>
98

>  <Smiles>
CNCC(c1cccc(O)c1)O

$$$$

Actelion Java MolfileCreator 2.0

  0  0  0  0  0  0              0 V3000
M  V30 BEGIN CTAB
M  V30 COUNTS 19 20 0 0 0
M  V30 BEGIN ATOM
M  V30 1 O 5.1961 -0.5 0.0 0
M  V30 2 C 4.3301 0.0 0.0 0
M  V30 3 O 3.4641 -0.5 0.0 0
M  V30 4 C 4.3301 1.0 0.0 0
M  V30 5 C 2.598 0.0 0.0 0 CFG=2
M  V30 6 C 5.1961 1.4999 0.0 0
M  V30 7 C 3.4641 1.5 0.0 0
M  V30 8 C 1.732 -0.5 0.0 0
M  V30 9 C 2.598 1.0 0.0 0
M  V30 10 C 5.1961 2.4999 0.0 0
M  V30 11 C 3.4641 2.5 0.0 0
M  V30 12 N 0.866 0.0 0.0 0
M  V30 13 C 4.3301 2.9999 0.0 0
M  V30 14 C 0.0 -0.5 0.0 0
M  V30 15 C -0.866 0.0 0.0 0
M  V30 16 C 0.0 -1.4999 0.0 0
M  V30 17 C -1.732 -0.4999 0.0 0
M  V30 18 C -0.866 -1.9999 0.0 0
M  V30 19 C -1.732 -1.4999 0.0 0
M  V30 END ATOM
M  V30 BEGIN BOND
M  V30 1 2 1 2
M  V30 2 1 2 3
M  V30 3 1 2 4
M  V30 4 1 5 3 CFG=3
M  V30 5 2 4 6
M  V30 6 1 4 7
M  V30 7 1 5 8
M  V30 8 1 5 9
M  V30 9 1 6 10
M  V30 10 2 7 11
M  V30 11 1 8 12
M  V30 12 2 10 13
M  V30 13 1 12 14
M  V30 14 1 14 15
M  V30 15 1 14 16
M  V30 16 1 15 17
M  V30 17 1 16 18
M  V30 18 1 17 19
M  V30 19 1 11 13
M  V30 20 1 18 19
M  V30 END BOND
M  V30 BEGIN COLLECTION
M  V30 MDLV30/STERAC1 ATOMS=(1 5)
M  V30 END COLLECTION
M  V30 END CTAB
M  END
>  <Molecule Name>


>  <status>
DISCONTINUED

>  <cas>
532-77-4

>  <name>
HEXYLCAINE

>  <ID>
99

>  <Smiles>
CC(CNC1CCCCC1)OC(c1ccccc1)=O

$$$$

Actelion Java MolfileCreator 2.0

  0  0  0  0  0  0              0 V3000
M  V30 BEGIN CTAB
M  V30 COUNTS 21 22 0 0 0
M  V30 BEGIN ATOM
M  V30 1 O 7.7942 -2.0 0.0 0
M  V30 2 C 6.9282 -1.5 0.0 0
M  V30 3 C 8.6602 -1.5 0.0 0
M  V30 4 C 6.9282 -0.5 0.0 0
M  V30 5 C 6.0621 -2.0 0.0 0
M  V30 6 C 6.0621 0.0 0.0 0
M  V30 7 C 5.1961 -1.5 0.0 0
M  V30 8 C 5.1961 -0.5 0.0 0
M  V30 9 C 4.3301 0.0 0.0 0
M  V30 10 N 3.4641 -0.5 0.0 0
M  V30 11 C 3.4641 -1.5 0.0 0
M  V30 12 C 2.598 0.0 0.0 0
M  V30 13 N 2.598 -1.9999 0.0 0
M  V30 14 C 4.3301 -2.0 0.0 0
M  V30 15 C 1.732 -0.5 0.0 0
M  V30 16 C 2.598 -2.9999 0.0 0
M  V30 17 C 4.3301 -3.0 0.0 0
M  V30 18 N 0.866 0.0 0.0 0
M  V30 19 C 3.4641 -3.5 0.0 0
M  V30 20 C 0.866 1.0 0.0 0
M  V30 21 C 0.0 -0.5 0.0 0
M  V30 END ATOM
M  V30 BEGIN BOND
M  V30 1 1 1 2
M  V30 2 1 1 3
M  V30 3 2 2 4
M  V30 4 1 2 5
M  V30 5 1 4 6
M  V30 6 2 5 7
M  V30 7 2 6 8
M  V30 8 1 8 9
M  V30 9 1 9 10
M  V30 10 1 10 11
M  V30 11 1 10 12
M  V30 12 2 11 13
M  V30 13 1 11 14
M  V30 14 1 12 15
M  V30 15 1 13 16
M  V30 16 2 14 17
M  V30 17 1 15 18
M  V30 18 2 16 19
M  V30 19 1 18 20
M  V30 20 1 18 21
M  V30 21 1 7 8
M  V30 22 1 17 19
M  V30 END BOND
M  V30 END CTAB
M  END
>  <Molecule Name>


>  <status>
DISCONTINUED

>  <cas>
91-84-9

>  <name>
PYRILAMINE

>  <ID>
100

>  <Smiles>
CN(C)CCN(Cc(cc1)ccc1OC)c1ncccc1

$$$$

Actelion Java MolfileCreator 2.0

  0  0  0  0  0  0              0 V3000
M  V30 BEGIN CTAB
M  V30 COUNTS 12 12 0 0 0
M  V30 BEGIN ATOM
M  V30 1 O 5.1961 3.75 0.0 0
M  V30 2 C 5.1961 2.25 0.0 0
M  V30 3 C 3.8971 1.5 0.0 0
M  V30 4 C 6.4952 1.5 0.0 0
M  V30 5 C 3.8971 0.0 0.0 0
M  V30 6 C 6.4952 0.0 0.0 0
M  V30 7 N 2.598 -0.75 0.0 0 CHG=1
M  V30 8 C 5.1961 -0.75 0.0 0
M  V30 9 C 1.299 0.0 0.0 0
M  V30 10 C 1.848 -2.049 0.0 0
M  V30 11 C 3.348 -2.049 0.0 0
M  V30 12 C 0.0 -0.75 0.0 0
M  V30 END ATOM
M  V30 BEGIN BOND
M  V30 1 1 1 2
M  V30 2 2 2 3
M  V30 3 1 2 4
M  V30 4 1 3 5
M  V30 5 2 4 6
M  V30 6 1 5 7
M  V30 7 2 5 8
M  V30 8 1 7 9
M  V30 9 1 7 10
M  V30 10 1 7 11
M  V30 11 1 9 12
M  V30 12 1 6 8
M  V30 END BOND
M  V30 END CTAB
M  END
>  <Molecule Name>


>  <status>
DISCONTINUED

>  <cas>
312-48-1

>  <name>
EDROPHONIUM

>  <ID>
101

>  <Smiles>
CC[N+](C)(C)c1cccc(O)c1

$$$$

Actelion Java MolfileCreator 2.0

  0  0  0  0  0  0              0 V3000
M  V30 BEGIN CTAB
M  V30 COUNTS 20 21 0 0 0
M  V30 BEGIN ATOM
M  V30 1 Br 7.7942 -2.0 0.0 0
M  V30 2 C 6.9282 -1.5 0.0 0
M  V30 3 C 6.9282 -0.5 0.0 0
M  V30 4 C 6.0621 -2.0 0.0 0
M  V30 5 C 6.0621 0.0 0.0 0
M  V30 6 C 5.1961 -1.5 0.0 0
M  V30 7 C 5.1961 -0.5 0.0 0
M  V30 8 C 4.3301 0.0 0.0 0 CFG=1
M  V30 9 O 3.4641 -0.5 0.0 0
M  V30 10 C 4.3301 1.0 0.0 0
M  V30 11 C 2.598 0.0 0.0 0
M  V30 12 C 5.1961 1.4999 0.0 0
M  V30 13 C 3.4641 1.5 0.0 0
M  V30 14 C 1.732 -0.5 0.0 0
M  V30 15 C 5.1961 2.4999 0.0 0
M  V30 16 C 3.4641 2.5 0.0 0
M  V30 17 N 0.866 0.0 0.0 0
M  V30 18 C 4.3301 2.9999 0.0 0
M  V30 19 C 0.866 1.0 0.0 0
M  V30 20 C 0.0 -0.5 0.0 0
M  V30 END ATOM
M  V30 BEGIN BOND
M  V30 1 1 1 2
M  V30 2 2 2 3
M  V30 3 1 2 4
M  V30 4 1 3 5
M  V30 5 2 4 6
M  V30 6 2 5 7
M  V30 7 1 8 7
M  V30 8 1 8 9 CFG=1
M  V30 9 1 8 10
M  V30 10 1 9 11
M  V30 11 2 10 12
M  V30 12 1 10 13
M  V30 13 1 11 14
M  V30 14 1 12 15
M  V30 15 2 13 16
M  V30 16 1 14 17
M  V30 17 2 15 18
M  V30 18 1 17 19
M  V30 19 1 17 20
M  V30 20 1 6 7
M  V30 21 1 16 18
M  V30 END BOND
M  V30 BEGIN COLLECTION
M  V30 MDLV30/STERAC1 ATOMS=(1 8)
M  V30 END COLLECTION
M  V30 END CTAB
M  END
>  <Molecule Name>


>  <status>
DISCONTINUED

>  <cas>
1808-12-4

>  <name>
BROMODIPHENHYDRAMINE

>  <ID>
102

>  <Smiles>
CN(C)CCOC(c1ccccc1)c(cc1)ccc1Br

$$$$

Actelion Java MolfileCreator 2.0

  0  0  0  0  0  0              0 V3000
M  V30 BEGIN CTAB
M  V30 COUNTS 33 35 0 0 0
M  V30 BEGIN ATOM
M  V30 1 O 9.0932 0.0 0.0 0
M  V30 2 C 7.7942 -0.75 0.0 0
M  V30 3 N 6.4951 0.0 0.0 0
M  V30 4 C 7.7942 -2.25 0.0 0
M  V30 5 C 5.1961 -0.75 0.0 0 CFG=2
M  V30 6 C 6.4951 -2.9999 0.0 0
M  V30 7 C 9.0932 -3.0 0.0 0
M  V30 8 C 3.8971 0.0 0.0 0
M  V30 9 C 5.1961 -2.25 0.0 0
M  V30 10 C 6.4951 -4.5 0.0 0
M  V30 11 C 9.0932 -4.5 0.0 0
M  V30 12 O 2.598 -0.75 0.0 0
M  V30 13 O 3.8971 1.4999 0.0 0 CHG=-1
M  V30 14 C 3.8971 -3.0 0.0 0
M  V30 15 C 7.7942 -5.25 0.0 0
M  V30 16 C 3.8971 -4.5 0.0 0
M  V30 17 N 7.7942 -6.75 0.0 0
M  V30 18 O 5.1961 -5.25 0.0 0
M  V30 19 O 2.598 -5.25 0.0 0 CHG=-1
M  V30 20 C 6.4951 -7.4999 0.0 0
M  V30 21 C 9.0932 -7.5 0.0 0
M  V30 22 C 6.4951 -9.0 0.0 0
M  V30 23 N 5.1961 -9.7499 0.0 0
M  V30 24 C 7.7942 -9.75 0.0 0
M  V30 25 C 5.1961 -11.2499 0.0 0
M  V30 26 N 7.7942 -11.25 0.0 0
M  V30 27 C 6.4951 -12.0 0.0 0
M  V30 28 C 3.8971 -11.9999 0.0 0
M  V30 29 N 6.4951 -13.5 0.0 0
M  V30 30 N 3.8971 -13.4999 0.0 0
M  V30 31 N 2.598 -11.2499 0.0 0
M  V30 32 C 5.1961 -14.2499 0.0 0
M  V30 33 N 5.1961 -15.7499 0.0 0
M  V30 END ATOM
M  V30 BEGIN BOND
M  V30 1 2 1 2
M  V30 2 1 2 3
M  V30 3 1 2 4
M  V30 4 1 5 3 CFG=1
M  V30 5 2 4 6
M  V30 6 1 4 7
M  V30 7 1 5 8
M  V30 8 1 5 9
M  V30 9 1 6 10
M  V30 10 2 7 11
M  V30 11 2 8 12
M  V30 12 1 8 13
M  V30 13 1 9 14
M  V30 14 2 10 15
M  V30 15 1 14 16
M  V30 16 1 15 17
M  V30 17 2 16 18
M  V30 18 1 16 19
M  V30 19 1 17 20
M  V30 20 1 17 21
M  V30 21 1 20 22
M  V30 22 2 22 23
M  V30 23 1 22 24
M  V30 24 1 23 25
M  V30 25 2 24 26
M  V30 26 1 25 27
M  V30 27 2 25 28
M  V30 28 2 27 29
M  V30 29 1 28 30
M  V30 30 1 28 31
M  V30 31 1 29 32
M  V30 32 1 32 33
M  V30 33 1 11 15
M  V30 34 1 26 27
M  V30 35 2 30 32
M  V30 END BOND
M  V30 BEGIN COLLECTION
M  V30 MDLV30/STERAC1 ATOMS=(1 5)
M  V30 END COLLECTION
M  V30 END CTAB
M  END
>  <Molecule Name>


>  <status>
-

>  <cas>
59-05-2

>  <name>
METHOTREXATE

>  <ID>
103

>  <Smiles>
CN(Cc1nc2c(N)nc(N)nc2nc1)c(cc1)ccc1C(NC(CCC([O-])=O)C([O-])=O)=O

$$$$

Actelion Java MolfileCreator 2.0

  0  0  0  0  0  0              0 V3000
M  V30 BEGIN CTAB
M  V30 COUNTS 27 29 0 0 0
M  V30 BEGIN ATOM
M  V30 1 Cl 3.8971 0.0 0.0 0
M  V30 2 C 2.598 -0.75 0.0 0
M  V30 3 C 2.598 -2.25 0.0 0
M  V30 4 C 1.299 0.0 0.0 0
M  V30 5 C 1.299 -3.0 0.0 0
M  V30 6 C 3.8971 -3.0 0.0 0
M  V30 7 C 1.299 1.5 0.0 0
M  V30 8 C 0.0 -0.75 0.0 0
M  V30 9 C 1.299 -4.5 0.0 0
M  V30 10 C 3.8971 -4.4999 0.0 0
M  V30 11 C 2.598 2.25 0.0 0
M  V30 12 C 0.0 2.2499 0.0 0
M  V30 13 C -1.299 0.0 0.0 0
M  V30 14 C 0.0 -2.2499 0.0 0
M  V30 15 C 2.598 -5.2499 0.0 0
M  V30 16 C 2.598 3.75 0.0 0
M  V30 17 C 0.0 3.75 0.0 0
M  V30 18 C -2.598 -0.7499 0.0 0
M  V30 19 C -1.299 -2.9999 0.0 0
M  V30 20 O 2.598 -6.75 0.0 0
M  V30 21 C 1.299 4.4999 0.0 0
M  V30 22 C -2.598 -2.2499 0.0 0
M  V30 23 C 3.8971 -7.5 0.0 0
M  V30 24 O 1.299 6.0 0.0 0
M  V30 25 O -3.8971 -2.9999 0.0 0
M  V30 26 C 0.0 6.75 0.0 0
M  V30 27 C -3.8971 -4.4999 0.0 0
M  V30 END ATOM
M  V30 BEGIN BOND
M  V30 1 1 1 2
M  V30 2 1 2 3
M  V30 3 2 2 4
M  V30 4 2 3 5
M  V30 5 1 3 6
M  V30 6 1 4 7
M  V30 7 1 4 8
M  V30 8 1 5 9
M  V30 9 2 6 10
M  V30 10 2 7 11
M  V30 11 1 7 12
M  V30 12 2 8 13
M  V30 13 1 8 14
M  V30 14 2 9 15
M  V30 15 1 11 16
M  V30 16 2 12 17
M  V30 17 1 13 18
M  V30 18 2 14 19
M  V30 19 1 15 20
M  V30 20 2 16 21
M  V30 21 2 18 22
M  V30 22 1 20 23
M  V30 23 1 21 24
M  V30 24 1 22 25
M  V30 25 1 24 26
M  V30 26 1 25 27
M  V30 27 1 10 15
M  V30 28 1 17 21
M  V30 29 1 19 22
M  V30 END BOND
M  V30 END CTAB
M  END
>  <Molecule Name>


>  <status>
DISCONTINUED

>  <cas>
569-57-3

>  <name>
CHLOROTRIANISENE

>  <ID>
104

>  <Smiles>
COc(cc1)ccc1C(c(cc1)ccc1OC)=C(c(cc1)ccc1OC)Cl

$$$$

Actelion Java MolfileCreator 2.0

  0  0  0  0  0  0              0 V3000
M  V30 BEGIN CTAB
M  V30 COUNTS 34 36 0 0 0
M  V30 BEGIN ATOM
M  V30 1 O 12.9903 0.0 0.0 0
M  V30 2 C 12.9903 0.9999 0.0 0
M  V30 3 N 13.8564 1.4999 0.0 0
M  V30 4 C 12.1243 1.4999 0.0 0
M  V30 5 C 13.8564 2.4999 0.0 0
M  V30 6 N 11.2583 0.9999 0.0 0
M  V30 7 C 12.1243 2.4999 0.0 0
M  V30 8 N 12.9903 2.9999 0.0 0
M  V30 9 N 14.7224 2.9999 0.0 0
M  V30 10 C 11.2583 0.0 0.0 0
M  V30 11 C 10.3923 1.4999 0.0 0 CFG=2
M  V30 12 N 11.2583 2.9999 0.0 0
M  V30 13 O 12.1243 -0.5 0.0 0
M  V30 14 C 10.3923 2.4999 0.0 0
M  V30 15 C 9.5262 0.9999 0.0 0
M  V30 16 N 8.6602 1.4999 0.0 0
M  V30 17 C 7.7942 0.9999 0.0 0
M  V30 18 C 6.9282 1.4999 0.0 0
M  V30 19 C 7.7942 0.0 0.0 0
M  V30 20 C 6.0621 0.9999 0.0 0
M  V30 21 C 6.9282 -0.5 0.0 0
M  V30 22 C 6.0621 0.0 0.0 0
M  V30 23 C 5.1961 -0.5 0.0 0
M  V30 24 O 5.1961 -1.4999 0.0 0
M  V30 25 N 4.3301 0.0 0.0 0
M  V30 26 C 3.4641 -0.5 0.0 0 CFG=1
M  V30 27 C 3.4641 -1.5 0.0 0
M  V30 28 C 2.598 0.0 0.0 0
M  V30 29 O 2.598 -1.9999 0.0 0
M  V30 30 O 4.3301 -2.0 0.0 0 CHG=-1
M  V30 31 C 1.732 -0.5 0.0 0
M  V30 32 C 0.866 0.0 0.0 0
M  V30 33 O 0.866 1.0 0.0 0
M  V30 34 O 0.0 -0.5 0.0 0 CHG=-1
M  V30 END ATOM
M  V30 BEGIN BOND
M  V30 1 2 1 2
M  V30 2 1 2 3
M  V30 3 1 2 4
M  V30 4 2 3 5
M  V30 5 1 4 6
M  V30 6 2 4 7
M  V30 7 1 5 8
M  V30 8 1 5 9
M  V30 9 1 6 10
M  V30 10 1 11 6
M  V30 11 1 7 12
M  V30 12 2 10 13
M  V30 13 1 11 14
M  V30 14 1 11 15 CFG=1
M  V30 15 1 15 16
M  V30 16 1 16 17
M  V30 17 2 17 18
M  V30 18 1 17 19
M  V30 19 1 18 20
M  V30 20 2 19 21
M  V30 21 2 20 22
M  V30 22 1 22 23
M  V30 23 2 23 24
M  V30 24 1 23 25
M  V30 25 1 26 25 CFG=1
M  V30 26 1 26 27
M  V30 27 1 26 28
M  V30 28 2 27 29
M  V30 29 1 27 30
M  V30 30 1 28 31
M  V30 31 1 31 32
M  V30 32 2 32 33
M  V30 33 1 32 34
M  V30 34 1 7 8
M  V30 35 1 12 14
M  V30 36 1 21 22
M  V30 END BOND
M  V30 BEGIN COLLECTION
M  V30 MDLV30/STERAC1 ATOMS=(2 11 26)
M  V30 END COLLECTION
M  V30 END CTAB
M  END
>  <Molecule Name>


>  <status>
-

>  <cas>
58-05-9

>  <name>
LEUCOVORIN

>  <ID>
105

>  <Smiles>
NC(NC(NC[C@@H]1CNc(cc2)ccc2C(N[C@H](CCC([O-])=O)C([O-])=O)=O)=C2N1C=O)=NC2=O

$$$$

Actelion Java MolfileCreator 2.0

  0  0  0  0  0  0              0 V3000
M  V30 BEGIN CTAB
M  V30 COUNTS 21 23 0 0 0
M  V30 BEGIN ATOM
M  V30 1 N 5.1961 -2.25 0.0 0 CHG=1
M  V30 2 C 5.1961 -0.75 0.0 0
M  V30 3 C 3.8971 -3.0 0.0 0
M  V30 4 C 5.9461 -3.549 0.0 0
M  V30 5 C 6.6961 -2.2499 0.0 0
M  V30 6 C 3.8971 0.0 0.0 0
M  V30 7 C 2.598 -2.25 0.0 0
M  V30 8 C 2.598 -0.75 0.0 0
M  V30 9 C 1.299 0.0 0.0 0
M  V30 10 C 1.299 1.5 0.0 0
M  V30 11 C 0.0 -0.75 0.0 0
M  V30 12 C 2.598 2.25 0.0 0
M  V30 13 C 0.0 2.25 0.0 0
M  V30 14 C -1.299 0.0 0.0 0
M  V30 15 C 0.0 -2.25 0.0 0
M  V30 16 C 2.598 3.75 0.0 0
M  V30 17 C 0.0 3.75 0.0 0
M  V30 18 C -2.598 -0.75 0.0 0
M  V30 19 C -1.299 -3.0 0.0 0
M  V30 20 C 1.299 4.5 0.0 0
M  V30 21 C -2.598 -2.25 0.0 0
M  V30 END ATOM
M  V30 BEGIN BOND
M  V30 1 1 1 2
M  V30 2 1 1 3
M  V30 3 1 1 4
M  V30 4 1 1 5
M  V30 5 1 2 6
M  V30 6 1 3 7
M  V30 7 1 6 8
M  V30 8 2 8 9
M  V30 9 1 9 10
M  V30 10 1 9 11
M  V30 11 2 10 12
M  V30 12 1 10 13
M  V30 13 2 11 14
M  V30 14 1 11 15
M  V30 15 1 12 16
M  V30 16 2 13 17
M  V30 17 1 14 18
M  V30 18 2 15 19
M  V30 19 2 16 20
M  V30 20 2 18 21
M  V30 21 1 7 8
M  V30 22 1 17 20
M  V30 23 1 19 21
M  V30 END BOND
M  V30 END CTAB
M  END
>  <Molecule Name>


>  <status>
DISCONTINUED

>  <cas>
15394-62-4

>  <name>
DIPHEMANIL

>  <ID>
106

>  <Smiles>
C[N+](C)(CC1)CCC1=C(c1ccccc1)c1ccccc1

$$$$

Actelion Java MolfileCreator 2.0

  0  0  0  0  0  0              0 V3000
M  V30 BEGIN CTAB
M  V30 COUNTS 15 16 0 0 0
M  V30 BEGIN ATOM
M  V30 1 O 2.598 -0.75 0.0 0
M  V30 2 C 3.8971 0.0 0.0 0
M  V30 3 C 1.299 0.0 0.0 0
M  V30 4 C 5.1961 -0.7499 0.0 0
M  V30 5 C 3.8971 1.4999 0.0 0
M  V30 6 C 0.0 -0.75 0.0 0
M  V30 7 C 6.4951 0.0 0.0 0
M  V30 8 C 5.1961 2.25 0.0 0
M  V30 9 C -1.299 0.0 0.0 0
M  V30 10 C 0.0 -2.25 0.0 0
M  V30 11 C 6.4951 1.5 0.0 0
M  V30 12 C -2.598 -0.7499 0.0 0
M  V30 13 C -1.299 -2.9999 0.0 0
M  V30 14 O 7.7942 2.25 0.0 0
M  V30 15 C -2.598 -2.2499 0.0 0
M  V30 END ATOM
M  V30 BEGIN BOND
M  V30 1 1 1 2
M  V30 2 1 1 3
M  V30 3 2 2 4
M  V30 4 1 2 5
M  V30 5 1 3 6
M  V30 6 1 4 7
M  V30 7 2 5 8
M  V30 8 2 6 9
M  V30 9 1 6 10
M  V30 10 2 7 11
M  V30 11 1 9 12
M  V30 12 2 10 13
M  V30 13 1 11 14
M  V30 14 2 12 15
M  V30 15 1 8 11
M  V30 16 1 13 15
M  V30 END BOND
M  V30 END CTAB
M  END
>  <Molecule Name>


>  <status>
DISCONTINUED

>  <cas>
103-16-2

>  <name>
MONOBENZONE

>  <ID>
107

>  <Smiles>
Oc(cc1)ccc1OCc1ccccc1

$$$$

Actelion Java MolfileCreator 2.0

  0  0  0  0  0  0              0 V3000
M  V30 BEGIN CTAB
M  V30 COUNTS 26 29 0 0 0
M  V30 BEGIN ATOM
M  V30 1 O 9.8723 -9.8585 0.0 0
M  V30 2 C 8.8647 -8.7394 0.0 0
M  V30 3 C 7.3917 -9.0525 0.0 0
M  V30 4 C 9.33 -7.3072 0.0 0
M  V30 5 C 6.3841 -7.9334 0.0 0
M  V30 6 C 8.3224 -6.1881 0.0 0
M  V30 7 C 6.8494 -6.5012 0.0 0 CFG=1
M  V30 8 C 4.9111 -8.2465 0.0 0
M  V30 9 C 5.8418 -5.3821 0.0 0 CFG=2
M  V30 10 C 7.3148 -5.069 0.0 0
M  V30 11 C 3.9035 -7.1274 0.0 0
M  V30 12 C 6.3071 -3.9499 0.0 0 CFG=2
M  V30 13 C 4.3688 -5.6952 0.0 0 CFG=2
M  V30 14 O 7.7801 -3.6368 0.0 0
M  V30 15 C 5.2995 -2.8308 0.0 0
M  V30 16 C 3.3612 -4.5761 0.0 0 CFG=2
M  V30 17 C 3.8265 -3.1439 0.0 0 CFG=2
M  V30 18 C 1.8553 -4.5761 0.0 0
M  V30 19 C 2.6082 -2.2588 0.0 0 CFG=2
M  V30 20 C 4.2602 -1.7319 0.0 0
M  V30 21 C 1.3899 -3.1439 0.0 0
M  V30 22 O 3.7088 -1.4532 0.0 0
M  V30 23 C 2.6082 -0.7529 0.0 0
M  V30 24 O 3.9124 0.0 0.0 0
M  V30 25 C 1.3041 0.0 0.0 0
M  V30 26 O 0.0 -0.7529 0.0 0
M  V30 END ATOM
M  V30 BEGIN BOND
M  V30 1 2 1 2
M  V30 2 1 2 3
M  V30 3 1 2 4
M  V30 4 2 3 5
M  V30 5 1 4 6
M  V30 6 1 7 5
M  V30 7 1 5 8
M  V30 8 1 9 7
M  V30 9 1 7 10 CFG=1
M  V30 10 1 8 11
M  V30 11 1 9 12 CFG=1
M  V30 12 1 13 9
M  V30 13 1 12 14 CFG=1
M  V30 14 1 12 15
M  V30 15 1 16 13
M  V30 16 1 17 15
M  V30 17 1 16 18 CFG=1
M  V30 18 1 19 17
M  V30 19 1 17 20 CFG=1
M  V30 20 1 18 21
M  V30 21 1 19 22 CFG=3
M  V30 22 1 19 23
M  V30 23 2 23 24
M  V30 24 1 23 25
M  V30 25 1 25 26
M  V30 26 1 6 7
M  V30 27 1 13 11 CFG=3
M  V30 28 1 16 17
M  V30 29 1 19 21
M  V30 END BOND
M  V30 BEGIN COLLECTION
M  V30 MDLV30/STERAC1 ATOMS=(7 7 9 12 13 16 17 19)
M  V30 END COLLECTION
M  V30 END CTAB
M  END
>  <Molecule Name>


>  <status>
-

>  <cas>
50-23-7

>  <name>
HYDROCORTISONE

>  <ID>
108

>  <Smiles>
C[C@@](C[C@H]1O)([C@H](CC2)[C@@H](CC3)[C@@H]1[C@](C)(CC1)C3=CC1=O)[C@@]2(C(CO)=O)O

$$$$

Actelion Java MolfileCreator 2.0

  0  0  0  0  0  0              0 V3000
M  V30 BEGIN CTAB
M  V30 COUNTS 29 32 0 0 0
M  V30 BEGIN ATOM
M  V30 1 O 12.476 -9.8549 0.0 0
M  V30 2 C 11.4688 -8.7362 0.0 0
M  V30 3 C 9.9963 -9.0492 0.0 0
M  V30 4 C 11.9339 -7.3045 0.0 0
M  V30 5 C 8.989 -7.9305 0.0 0
M  V30 6 C 10.9267 -6.1858 0.0 0
M  V30 7 C 9.4542 -6.4988 0.0 0 CFG=1
M  V30 8 C 7.5166 -8.2434 0.0 0
M  V30 9 C 8.447 -5.3801 0.0 0 CFG=2
M  V30 10 C 9.9194 -5.0672 0.0 0
M  V30 11 C 6.5093 -7.1248 0.0 0
M  V30 12 C 8.9121 -3.9485 0.0 0 CFG=2
M  V30 13 C 6.9745 -5.6931 0.0 0 CFG=2
M  V30 14 O 10.3846 -3.6355 0.0 0
M  V30 15 C 7.9049 -2.8298 0.0 0
M  V30 16 C 5.9672 -4.5744 0.0 0 CFG=2
M  V30 17 C 6.4324 -3.1428 0.0 0 CFG=2
M  V30 18 C 4.4619 -4.5744 0.0 0
M  V30 19 C 5.2146 -2.258 0.0 0 CFG=2
M  V30 20 C 6.866 -1.7312 0.0 0
M  V30 21 C 3.9967 -3.1428 0.0 0
M  V30 22 O 6.3147 -1.4527 0.0 0
M  V30 23 C 5.2146 -0.7526 0.0 0
M  V30 24 O 6.5182 0.0 0.0 0
M  V30 25 C 3.9109 0.0 0.0 0
M  V30 26 O 2.6073 -0.7526 0.0 0
M  V30 27 C 1.3036 0.0 0.0 0
M  V30 28 O 1.3036 1.5053 0.0 0
M  V30 29 C 0.0 -0.7526 0.0 0
M  V30 END ATOM
M  V30 BEGIN BOND
M  V30 1 2 1 2
M  V30 2 1 2 3
M  V30 3 1 2 4
M  V30 4 2 3 5
M  V30 5 1 4 6
M  V30 6 1 7 5
M  V30 7 1 5 8
M  V30 8 1 9 7
M  V30 9 1 7 10 CFG=1
M  V30 10 1 8 11
M  V30 11 1 9 12 CFG=1
M  V30 12 1 13 9
M  V30 13 1 12 14 CFG=1
M  V30 14 1 12 15
M  V30 15 1 16 13
M  V30 16 1 17 15
M  V30 17 1 16 18 CFG=1
M  V30 18 1 19 17
M  V30 19 1 17 20 CFG=1
M  V30 20 1 18 21
M  V30 21 1 19 22 CFG=3
M  V30 22 1 19 23
M  V30 23 2 23 24
M  V30 24 1 23 25
M  V30 25 1 25 26
M  V30 26 1 26 27
M  V30 27 2 27 28
M  V30 28 1 27 29
M  V30 29 1 6 7
M  V30 30 1 13 11 CFG=3
M  V30 31 1 16 17
M  V30 32 1 19 21
M  V30 END BOND
M  V30 BEGIN COLLECTION
M  V30 MDLV30/STERAC1 ATOMS=(7 7 9 12 13 16 17 19)
M  V30 END COLLECTION
M  V30 END CTAB
M  END
>  <Molecule Name>


>  <status>
-

>  <cas>
50-03-3

>  <name>
HYDROCORTISONE ACETATE

>  <ID>
109

>  <Smiles>
C[C@@](C[C@H]1O)([C@H](CC2)[C@@H](CC3)[C@@H]1[C@](C)(CC1)C3=CC1=O)[C@@]2(C(COC(C)=O)=O)O

$$$$

Actelion Java MolfileCreator 2.0

  0  0  0  0  0  0              0 V3000
M  V30 BEGIN CTAB
M  V30 COUNTS 32 35 0 0 0
M  V30 BEGIN ATOM
M  V30 1 O -2.9414 -10.8142 0.0 0
M  V30 2 C -2.4773 -9.3859 0.0 0
M  V30 3 C -3.4822 -8.2699 0.0 0
M  V30 4 C -1.0084 -9.0737 0.0 0
M  V30 5 C -3.0182 -6.8416 0.0 0
M  V30 6 C -0.5443 -7.6454 0.0 0
M  V30 7 C -1.5492 -6.5293 0.0 0 CFG=1
M  V30 8 C -4.0231 -5.7255 0.0 0
M  V30 9 C -1.0851 -5.101 0.0 0 CFG=2
M  V30 10 C -0.0802 -6.2171 0.0 0
M  V30 11 C -3.559 -4.2972 0.0 0
M  V30 12 C 0.3838 -4.7888 0.0 0 CFG=2
M  V30 13 C -2.09 -3.985 0.0 0 CFG=2
M  V30 14 O 1.3887 -5.9048 0.0 0
M  V30 15 C 0.79 -3.4113 0.0 0
M  V30 16 C -1.6259 -2.5567 0.0 0 CFG=2
M  V30 17 C -0.1569 -2.2444 0.0 0 CFG=2
M  V30 18 C -2.3768 -1.2561 0.0 0
M  V30 19 C 0.0 -0.7509 0.0 0 CFG=2
M  V30 20 C 1.4054 -1.9564 0.0 0
M  V30 21 C -1.3719 -0.14 0.0 0
M  V30 22 O 1.3006 0.0 0.0 0
M  V30 23 C 1.2284 -1.4 0.0 0
M  V30 24 C 1.3006 1.5018 0.0 0
M  V30 25 O 1.2967 -2.967 0.0 0
M  V30 26 C 2.5976 -0.887 0.0 0
M  V30 27 O 0.0 2.2527 0.0 0
M  V30 28 C 2.6012 2.2527 0.0 0
M  V30 29 O 3.8571 -1.7049 0.0 0
M  V30 30 C 2.6012 3.7545 0.0 0
M  V30 31 C 3.9018 4.5054 0.0 0
M  V30 32 C 3.9018 6.0072 0.0 0
M  V30 END ATOM
M  V30 BEGIN BOND
M  V30 1 2 1 2
M  V30 2 1 2 3
M  V30 3 1 2 4
M  V30 4 2 3 5
M  V30 5 1 4 6
M  V30 6 1 7 5
M  V30 7 1 5 8
M  V30 8 1 9 7
M  V30 9 1 7 10 CFG=1
M  V30 10 1 8 11
M  V30 11 1 9 12 CFG=1
M  V30 12 1 13 9
M  V30 13 1 12 14 CFG=1
M  V30 14 1 12 15
M  V30 15 1 16 13
M  V30 16 1 17 15
M  V30 17 1 16 18 CFG=1
M  V30 18 1 19 17
M  V30 19 1 17 20 CFG=1
M  V30 20 1 18 21
M  V30 21 1 19 22
M  V30 22 1 19 23 CFG=1
M  V30 23 1 22 24
M  V30 24 2 23 25
M  V30 25 1 23 26
M  V30 26 2 24 27
M  V30 27 1 24 28
M  V30 28 1 26 29
M  V30 29 1 28 30
M  V30 30 1 30 31
M  V30 31 1 31 32
M  V30 32 1 6 7
M  V30 33 1 13 11 CFG=3
M  V30 34 1 16 17
M  V30 35 1 19 21
M  V30 END BOND
M  V30 BEGIN COLLECTION
M  V30 MDLV30/STERAC1 ATOMS=(7 7 9 12 13 16 17 19)
M  V30 END COLLECTION
M  V30 END CTAB
M  END
>  <Molecule Name>


>  <status>
-

>  <cas>
57524-89-7

>  <name>
HYDROCORTISONE VALERATE

>  <ID>
110

>  <Smiles>
CCCCC(O[C@@](CC1)([C@](C)(C[C@H]2O)[C@H]1[C@@H](CC1)[C@@H]2[C@](C)(CC2)C1=CC2=O)C(CO)=O)=O

$$$$

Actelion Java MolfileCreator 2.0

  0  0  0  0  0  0              0 V3000
M  V30 BEGIN CTAB
M  V30 COUNTS 31 34 0 0 0
M  V30 BEGIN ATOM
M  V30 1 O -2.9415 -10.8146 0.0 0
M  V30 2 C -2.4774 -9.3863 0.0 0
M  V30 3 C -3.4824 -8.2702 0.0 0
M  V30 4 C -1.0084 -9.074 0.0 0
M  V30 5 C -3.0183 -6.8418 0.0 0
M  V30 6 C -0.5443 -7.6457 0.0 0
M  V30 7 C -1.5492 -6.5296 0.0 0 CFG=1
M  V30 8 C -4.0232 -5.7257 0.0 0
M  V30 9 C -1.0851 -5.1012 0.0 0 CFG=2
M  V30 10 C -0.0802 -6.2173 0.0 0
M  V30 11 C -3.5591 -4.2974 0.0 0
M  V30 12 C 0.3838 -4.789 0.0 0 CFG=2
M  V30 13 C -2.0901 -3.9851 0.0 0 CFG=2
M  V30 14 O 1.3887 -5.9051 0.0 0
M  V30 15 C 0.79 -3.4114 0.0 0
M  V30 16 C -1.626 -2.5568 0.0 0 CFG=2
M  V30 17 C -0.1569 -2.2445 0.0 0 CFG=2
M  V30 18 C -2.3769 -1.2561 0.0 0
M  V30 19 C 0.0 -0.7509 0.0 0 CFG=2
M  V30 20 C 1.4054 -1.9565 0.0 0
M  V30 21 C -1.372 -0.14 0.0 0
M  V30 22 O 1.3006 0.0 0.0 0
M  V30 23 C 1.2284 -1.4001 0.0 0
M  V30 24 C 1.3006 1.5018 0.0 0
M  V30 25 O 1.2967 -2.9671 0.0 0
M  V30 26 C 2.5977 -0.887 0.0 0
M  V30 27 O 0.0 2.2527 0.0 0
M  V30 28 C 2.6012 2.2527 0.0 0
M  V30 29 O 3.8572 -1.705 0.0 0
M  V30 30 C 2.6012 3.7546 0.0 0
M  V30 31 C 3.9019 4.5055 0.0 0
M  V30 END ATOM
M  V30 BEGIN BOND
M  V30 1 2 1 2
M  V30 2 1 2 3
M  V30 3 1 2 4
M  V30 4 2 3 5
M  V30 5 1 4 6
M  V30 6 1 7 5
M  V30 7 1 5 8
M  V30 8 1 9 7
M  V30 9 1 7 10 CFG=1
M  V30 10 1 8 11
M  V30 11 1 9 12 CFG=1
M  V30 12 1 13 9
M  V30 13 1 12 14 CFG=1
M  V30 14 1 12 15
M  V30 15 1 16 13
M  V30 16 1 17 15
M  V30 17 1 16 18 CFG=1
M  V30 18 1 19 17
M  V30 19 1 17 20 CFG=1
M  V30 20 1 18 21
M  V30 21 1 19 22
M  V30 22 1 19 23 CFG=1
M  V30 23 1 22 24
M  V30 24 2 23 25
M  V30 25 1 23 26
M  V30 26 2 24 27
M  V30 27 1 24 28
M  V30 28 1 26 29
M  V30 29 1 28 30
M  V30 30 1 30 31
M  V30 31 1 6 7
M  V30 32 1 13 11 CFG=3
M  V30 33 1 16 17
M  V30 34 1 19 21
M  V30 END BOND
M  V30 BEGIN COLLECTION
M  V30 MDLV30/STERAC1 ATOMS=(7 7 9 12 13 16 17 19)
M  V30 END COLLECTION
M  V30 END CTAB
M  END
>  <Molecule Name>


>  <status>
-

>  <cas>
13609-67-1

>  <name>
HYDROCORTISONE BUTYRATE

>  <ID>
111

>  <Smiles>
CCCC(O[C@@](CC1)([C@](C)(C[C@H]2O)[C@H]1[C@@H](CC1)[C@@H]2[C@](C)(CC2)C1=CC2=O)C(CO)=O)=O

$$$$

Actelion Java MolfileCreator 2.0

  0  0  0  0  0  0              0 V3000
M  V30 BEGIN CTAB
M  V30 COUNTS 12 12 0 0 0
M  V30 BEGIN ATOM
M  V30 1 N 3.8971 0.0 0.0 0
M  V30 2 C 2.598 -0.75 0.0 0
M  V30 3 C 5.1961 -0.75 0.0 0
M  V30 4 C 1.299 0.0 0.0 0
M  V30 5 C 1.848 -2.049 0.0 0
M  V30 6 C 3.348 -2.049 0.0 0
M  V30 7 C 0.0 -0.75 0.0 0
M  V30 8 C -1.299 0.0 0.0 0
M  V30 9 C 0.0 -2.25 0.0 0
M  V30 10 C -2.598 -0.75 0.0 0
M  V30 11 C -1.299 -3.0 0.0 0
M  V30 12 C -2.598 -2.25 0.0 0
M  V30 END ATOM
M  V30 BEGIN BOND
M  V30 1 1 1 2
M  V30 2 1 1 3
M  V30 3 1 2 4
M  V30 4 1 2 5
M  V30 5 1 2 6
M  V30 6 1 4 7
M  V30 7 2 7 8
M  V30 8 1 7 9
M  V30 9 1 8 10
M  V30 10 2 9 11
M  V30 11 2 10 12
M  V30 12 1 11 12
M  V30 END BOND
M  V30 END CTAB
M  END
>  <Molecule Name>


>  <status>
DISCONTINUED

>  <cas>
100-92-5

>  <name>
MEPHENTERMINE

>  <ID>
112

>  <Smiles>
CC(C)(Cc1ccccc1)NC

$$$$

Actelion Java MolfileCreator 2.0

  0  0  0  0  0  0              0 V3000
M  V30 BEGIN CTAB
M  V30 COUNTS 12 13 0 0 0
M  V30 BEGIN ATOM
M  V30 1 N 2.598 -2.2499 0.0 0
M  V30 2 N 3.8971 -3.0 0.0 0
M  V30 3 C 2.598 -0.75 0.0 0
M  V30 4 C 5.1961 -2.25 0.0 0
M  V30 5 N 1.299 0.0 0.0 0
M  V30 6 C 3.8971 0.0 0.0 0
M  V30 7 C 5.1961 -0.75 0.0 0
M  V30 8 N 0.0 -0.75 0.0 0
M  V30 9 C 3.8971 1.4999 0.0 0
M  V30 10 C 6.4951 0.0 0.0 0
M  V30 11 C 5.1961 2.25 0.0 0
M  V30 12 C 6.4951 1.5 0.0 0
M  V30 END ATOM
M  V30 BEGIN BOND
M  V30 1 1 1 2
M  V30 2 2 1 3
M  V30 3 2 2 4
M  V30 4 1 3 5
M  V30 5 1 3 6
M  V30 6 1 4 7
M  V30 7 1 5 8
M  V30 8 2 6 9
M  V30 9 2 7 10
M  V30 10 1 9 11
M  V30 11 1 10 12
M  V30 12 1 6 7
M  V30 13 2 11 12
M  V30 END BOND
M  V30 END CTAB
M  END
>  <Molecule Name>


>  <status>
-

>  <cas>
86-54-4

>  <name>
HYDRALAZINE

>  <ID>
113

>  <Smiles>
NNc1nncc2ccccc12

$$$$

Actelion Java MolfileCreator 2.0

  0  0  0  0  0  0              0 V3000
M  V30 BEGIN CTAB
M  V30 COUNTS 22 26 0 0 0
M  V30 BEGIN ATOM
M  V30 1 O 2.9446 0.9802 0.0 0
M  V30 2 C 2.6138 0.0365 0.0 0
M  V30 3 C 3.9443 0.9572 0.0 0 CFG=2
M  V30 4 C 1.732 -0.5 0.0 0
M  V30 5 C 3.409 -0.5697 0.0 0
M  V30 6 C 4.2314 -7.0E-4 0.0 0 CFG=2
M  V30 7 C 4.7573 1.5932 0.0 0 CFG=1
M  V30 8 O 0.866 0.0 0.0 0
M  V30 9 C 1.709 -1.4997 0.0 0
M  V30 10 C 3.4906 -1.5663 0.0 0
M  V30 11 C 5.1353 -0.4283 0.0 0 CFG=1
M  V30 12 C 5.2908 0.7539 0.0 0
M  V30 13 O 4.5946 2.5799 0.0 0
M  V30 14 C 5.7009 1.2624 0.0 0
M  V30 15 C 0.0 -0.5 0.0 0
M  V30 16 C 2.5633 -2.0195 0.0 0
M  V30 17 C 4.3946 -1.994 0.0 0
M  V30 18 C 5.8162 0.205 0.0 0
M  V30 19 C 5.2169 -1.425 0.0 0 CFG=1
M  V30 20 C 6.2633 0.3398 0.0 0
M  V30 21 N 6.3134 -0.6663 0.0 0
M  V30 22 C 7.2173 -1.094 0.0 0
M  V30 END ATOM
M  V30 BEGIN BOND
M  V30 1 1 1 2
M  V30 2 1 3 1 CFG=1
M  V30 3 2 2 4
M  V30 4 1 2 5
M  V30 5 1 6 3
M  V30 6 1 7 3
M  V30 7 1 4 8
M  V30 8 1 4 9
M  V30 9 2 5 10
M  V30 10 1 11 6
M  V30 11 1 6 12 CFG=3
M  V30 12 1 7 13 CFG=1
M  V30 13 1 7 14
M  V30 14 1 8 15
M  V30 15 2 9 16
M  V30 16 1 10 17
M  V30 17 1 11 18 CFG=1
M  V30 18 1 19 11
M  V30 19 1 12 20
M  V30 20 1 19 21 CFG=3
M  V30 21 1 21 22
M  V30 22 1 5 6
M  V30 23 1 10 16
M  V30 24 2 14 18
M  V30 25 1 17 19
M  V30 26 1 20 21
M  V30 END BOND
M  V30 BEGIN COLLECTION
M  V30 MDLV30/STERAC1 ATOMS=(5 3 6 7 11 19)
M  V30 END COLLECTION
M  V30 END CTAB
M  END
>  <Molecule Name>


>  <status>
-

>  <cas>
76-57-3

>  <name>
CODEINE

>  <ID>
114

>  <Smiles>
CN(CC[C@]12c3c(C4)ccc(OC)c3O[C@H]22)[C@H]4[C@@H]1C=C[C@@H]2O

$$$$

Actelion Java MolfileCreator 2.0

  0  0  0  0  0  0              0 V3000
M  V30 BEGIN CTAB
M  V30 COUNTS 23 25 0 0 0
M  V30 BEGIN ATOM
M  V30 1 O 2.8254 -2.1636 0.0 0
M  V30 2 C 3.5686 -1.4945 0.0 0
M  V30 3 N 4.5467 -1.7024 0.0 0
M  V30 4 C 3.4641 -0.5 0.0 0
M  V30 5 N 5.0467 -0.8364 0.0 0
M  V30 6 C 4.9535 -2.6159 0.0 0
M  V30 7 C 4.3776 -0.0932 0.0 0
M  V30 8 C 2.598 0.0 0.0 0
M  V30 9 C 6.0412 -0.7318 0.0 0
M  V30 10 C 4.3657 -3.4249 0.0 0
M  V30 11 C 5.948 -2.7205 0.0 0
M  V30 12 O 4.5855 0.8848 0.0 0
M  V30 13 C 1.732 -0.5 0.0 0
M  V30 14 C 6.629 -1.5408 0.0 0
M  V30 15 C 6.448 0.1816 0.0 0
M  V30 16 C 4.7724 -4.3385 0.0 0
M  V30 17 C 6.3547 -3.634 0.0 0
M  V30 18 C 0.866 0.0 0.0 0
M  V30 19 C 7.6236 -1.4363 0.0 0
M  V30 20 C 7.4425 0.2861 0.0 0
M  V30 21 C 5.7669 -4.443 0.0 0
M  V30 22 C 0.0 -0.5 0.0 0
M  V30 23 C 8.0303 -0.5228 0.0 0
M  V30 END ATOM
M  V30 BEGIN BOND
M  V30 1 2 1 2
M  V30 2 1 2 3
M  V30 3 1 2 4
M  V30 4 1 3 5
M  V30 5 1 3 6
M  V30 6 1 4 7
M  V30 7 1 4 8
M  V30 8 1 5 9
M  V30 9 2 6 10
M  V30 10 1 6 11
M  V30 11 2 7 12
M  V30 12 1 8 13
M  V30 13 2 9 14
M  V30 14 1 9 15
M  V30 15 1 10 16
M  V30 16 2 11 17
M  V30 17 1 13 18
M  V30 18 1 14 19
M  V30 19 2 15 20
M  V30 20 2 16 21
M  V30 21 1 18 22
M  V30 22 2 19 23
M  V30 23 1 5 7
M  V30 24 1 17 21
M  V30 25 1 20 23
M  V30 END BOND
M  V30 END CTAB
M  END
>  <Molecule Name>


>  <status>
DISCONTINUED

>  <cas>
50-33-9

>  <name>
PHENYLBUTAZONE

>  <ID>
115

>  <Smiles>
CCCCC(C(N(c1ccccc1)N1c2ccccc2)=O)C1=O

$$$$

Actelion Java MolfileCreator 2.0

  0  0  0  0  0  0              0 V3000
M  V30 BEGIN CTAB
M  V30 COUNTS 14 14 0 0 0
M  V30 BEGIN ATOM
M  V30 1 O -2.598 -1.9999 0.0 0
M  V30 2 C -1.732 -1.4999 0.0 0
M  V30 3 N -0.866 -1.9999 0.0 0
M  V30 4 N -1.732 -0.4999 0.0 0
M  V30 5 C 0.0 -1.5 0.0 0
M  V30 6 C -0.866 -2.9999 0.0 0
M  V30 7 C -0.866 0.0 0.0 0
M  V30 8 O 0.866 -2.0 0.0 0
M  V30 9 C 0.0 -0.5 0.0 0
M  V30 10 O -0.866 1.0 0.0 0
M  V30 11 C 0.866 0.0 0.0 0
M  V30 12 C 0.866 -1.0 0.0 0
M  V30 13 C 0.866 0.9999 0.0 0
M  V30 14 C 1.732 -0.5 0.0 0
M  V30 END ATOM
M  V30 BEGIN BOND
M  V30 1 2 1 2
M  V30 2 1 2 3
M  V30 3 1 2 4
M  V30 4 1 3 5
M  V30 5 1 3 6
M  V30 6 1 4 7
M  V30 7 2 5 8
M  V30 8 1 5 9
M  V30 9 2 7 10
M  V30 10 1 9 11
M  V30 11 1 9 12
M  V30 12 1 11 13
M  V30 13 1 12 14
M  V30 14 1 7 9
M  V30 END BOND
M  V30 END CTAB
M  END
>  <Molecule Name>


>  <status>
DISCONTINUED

>  <cas>
50-11-3

>  <name>
METHARBITAL

>  <ID>
116

>  <Smiles>
CCC(CC)(C(NC(N1C)=O)=O)C1=O

$$$$

Actelion Java MolfileCreator 2.0

  0  0  0  0  0  0              0 V3000
M  V30 BEGIN CTAB
M  V30 COUNTS 10 10 0 0 0
M  V30 BEGIN ATOM
M  V30 1 O 2.598 0.0 0.0 0
M  V30 2 C 1.732 -0.5 0.0 0
M  V30 3 N 0.866 0.0 0.0 0
M  V30 4 C 1.732 -1.5 0.0 0
M  V30 5 N 0.0 -0.5 0.0 0
M  V30 6 C 0.866 -1.9999 0.0 0
M  V30 7 C 2.598 -2.0 0.0 0
M  V30 8 C 0.866 -2.9999 0.0 0
M  V30 9 C 2.598 -3.0 0.0 0
M  V30 10 N 1.732 -3.5 0.0 0
M  V30 END ATOM
M  V30 BEGIN BOND
M  V30 1 2 1 2
M  V30 2 1 2 3
M  V30 3 1 2 4
M  V30 4 1 3 5
M  V30 5 2 4 6
M  V30 6 1 4 7
M  V30 7 1 6 8
M  V30 8 2 7 9
M  V30 9 2 8 10
M  V30 10 1 9 10
M  V30 END BOND
M  V30 END CTAB
M  END
>  <Molecule Name>


>  <status>
-

>  <cas>
54-85-3

>  <name>
ISONIAZID

>  <ID>
117

>  <Smiles>
NNC(c1ccncc1)=O

$$$$

Actelion Java MolfileCreator 2.0

  0  0  0  0  0  0              0 V3000
M  V30 BEGIN CTAB
M  V30 COUNTS 20 19 0 0 0
M  V30 BEGIN ATOM
M  V30 1 O 6.0621 0.9999 0.0 0
M  V30 2 C 6.0621 0.0 0.0 0
M  V30 3 O 6.9282 -0.5 0.0 0
M  V30 4 C 5.1961 -0.5 0.0 0
M  V30 5 C 7.7942 0.0 0.0 0
M  V30 6 C 4.3301 0.0 0.0 0
M  V30 7 C 8.6602 -0.5 0.0 0
M  V30 8 C 3.4641 -0.5 0.0 0
M  V30 9 N 9.5262 0.0 0.0 0 CHG=1
M  V30 10 O 3.4641 -1.5 0.0 0
M  V30 11 O 2.598 0.0 0.0 0
M  V30 12 C 9.0262 0.866 0.0 0
M  V30 13 C 10.3923 0.4999 0.0 0
M  V30 14 C 10.0262 -0.866 0.0 0
M  V30 15 C 1.732 -0.5 0.0 0
M  V30 16 C 0.866 0.0 0.0 0
M  V30 17 N 0.0 -0.5 0.0 0 CHG=1
M  V30 18 C 0.4999 -1.366 0.0 0
M  V30 19 C -0.866 -0.9999 0.0 0
M  V30 20 C -0.4999 0.366 0.0 0
M  V30 END ATOM
M  V30 BEGIN BOND
M  V30 1 2 1 2
M  V30 2 1 2 3
M  V30 3 1 2 4
M  V30 4 1 3 5
M  V30 5 1 4 6
M  V30 6 1 5 7
M  V30 7 1 6 8
M  V30 8 1 7 9
M  V30 9 2 8 10
M  V30 10 1 8 11
M  V30 11 1 9 12
M  V30 12 1 9 13
M  V30 13 1 9 14
M  V30 14 1 11 15
M  V30 15 1 15 16
M  V30 16 1 16 17
M  V30 17 1 17 18
M  V30 18 1 17 19
M  V30 19 1 17 20
M  V30 END BOND
M  V30 END CTAB
M  END
>  <Molecule Name>


>  <status>
-

>  <cas>
306-40-1

>  <name>
SUCCINYLCHOLINE

>  <ID>
118

>  <Smiles>
C[N+](C)(C)CCOC(CCC(OCC[N+](C)(C)C)=O)=O

$$$$

Actelion Java MolfileCreator 2.0

  0  0  0  0  0  0              0 V3000
M  V30 BEGIN CTAB
M  V30 COUNTS 19 20 0 0 0
M  V30 BEGIN ATOM
M  V30 1 O 5.1961 -0.5 0.0 0
M  V30 2 C 4.3301 0.0 0.0 0
M  V30 3 O 3.4641 -0.5 0.0 0
M  V30 4 C 4.3301 1.0 0.0 0
M  V30 5 C 2.598 0.0 0.0 0 CFG=2
M  V30 6 C 5.1961 1.4999 0.0 0
M  V30 7 C 3.4641 1.5 0.0 0
M  V30 8 C 1.732 -0.5 0.0 0
M  V30 9 C 2.598 1.0 0.0 0
M  V30 10 C 5.1961 2.4999 0.0 0
M  V30 11 C 3.4641 2.5 0.0 0
M  V30 12 N 0.866 0.0 0.0 0
M  V30 13 C 4.3301 2.9999 0.0 0
M  V30 14 C 0.0 -0.5 0.0 0
M  V30 15 C -0.866 0.0 0.0 0
M  V30 16 C 0.0 -1.4999 0.0 0
M  V30 17 C -1.732 -0.4999 0.0 0
M  V30 18 C -0.866 -1.9999 0.0 0
M  V30 19 C -1.732 -1.4999 0.0 0
M  V30 END ATOM
M  V30 BEGIN BOND
M  V30 1 2 1 2
M  V30 2 1 2 3
M  V30 3 1 2 4
M  V30 4 1 5 3 CFG=3
M  V30 5 2 4 6
M  V30 6 1 4 7
M  V30 7 1 5 8
M  V30 8 1 5 9
M  V30 9 1 6 10
M  V30 10 2 7 11
M  V30 11 1 8 12
M  V30 12 2 10 13
M  V30 13 1 12 14
M  V30 14 1 14 15
M  V30 15 1 14 16
M  V30 16 1 15 17
M  V30 17 1 16 18
M  V30 18 1 17 19
M  V30 19 1 11 13
M  V30 20 1 18 19
M  V30 END BOND
M  V30 BEGIN COLLECTION
M  V30 MDLV30/STERAC1 ATOMS=(1 5)
M  V30 END COLLECTION
M  V30 END CTAB
M  END
>  <Molecule Name>


>  <status>
DISCONTINUED

>  <cas>
532-77-4

>  <name>
HEXYLCAINE

>  <ID>
119

>  <Smiles>
CC(CNC1CCCCC1)OC(c1ccccc1)=O

$$$$

Actelion Java MolfileCreator 2.0

  0  0  0  0  0  0              0 V3000
M  V30 BEGIN CTAB
M  V30 COUNTS 17 18 0 0 0
M  V30 BEGIN ATOM
M  V30 1 S 2.598 -0.75 0.0 0
M  V30 2 O 1.848 -2.049 0.0 0
M  V30 3 O 3.348 -2.049 0.0 0
M  V30 4 N 1.299 0.0 0.0 0
M  V30 5 C 3.8971 0.0 0.0 0
M  V30 6 C 0.0 -0.75 0.0 0
M  V30 7 C 5.1961 -0.75 0.0 0
M  V30 8 C 3.8971 1.5 0.0 0
M  V30 9 S -1.3703 -0.1398 0.0 0
M  V30 10 N -0.1567 -2.2417 0.0 0
M  V30 11 C 6.4952 0.0 0.0 0
M  V30 12 C 5.1961 2.25 0.0 0
M  V30 13 C -2.374 -1.2546 0.0 0
M  V30 14 N -1.624 -2.5536 0.0 0
M  V30 15 C 6.4952 1.5 0.0 0
M  V30 16 C -3.8658 -1.0978 0.0 0
M  V30 17 N 7.7942 2.25 0.0 0
M  V30 END ATOM
M  V30 BEGIN BOND
M  V30 1 2 1 2
M  V30 2 2 1 3
M  V30 3 1 1 4
M  V30 4 1 1 5
M  V30 5 1 4 6
M  V30 6 2 5 7
M  V30 7 1 5 8
M  V30 8 1 6 9
M  V30 9 2 6 10
M  V30 10 1 7 11
M  V30 11 2 8 12
M  V30 12 1 9 13
M  V30 13 1 10 14
M  V30 14 2 11 15
M  V30 15 1 13 16
M  V30 16 1 15 17
M  V30 17 1 12 15
M  V30 18 2 13 14
M  V30 END BOND
M  V30 END CTAB
M  END
>  <Molecule Name>


>  <status>
DISCONTINUED

>  <cas>
144-82-1

>  <name>
SULFAMETHIZOLE

>  <ID>
120

>  <Smiles>
Cc1nnc(NS(c(cc2)ccc2N)(=O)=O)s1

$$$$

Actelion Java MolfileCreator 2.0

  0  0  0  0  0  0              0 V3000
M  V30 BEGIN CTAB
M  V30 COUNTS 17 18 0 0 0
M  V30 BEGIN ATOM
M  V30 1 Cl -1.732 -3.4999 0.0 0
M  V30 2 C -0.866 -2.9999 0.0 0
M  V30 3 C 0.0 -3.4999 0.0 0
M  V30 4 C -0.866 -1.9999 0.0 0
M  V30 5 C 0.866 -2.9999 0.0 0
M  V30 6 C 0.0 -1.4999 0.0 0
M  V30 7 C 0.866 -1.9999 0.0 0
M  V30 8 C 1.732 -1.4999 0.0 0
M  V30 9 C 2.598 -1.9999 0.0 0
M  V30 10 C 1.732 -0.5 0.0 0
M  V30 11 N 3.4641 -1.4999 0.0 0
M  V30 12 N 2.598 -3.0 0.0 0
M  V30 13 N 2.598 0.0 0.0 0
M  V30 14 C 0.866 0.0 0.0 0
M  V30 15 C 3.4641 -0.5 0.0 0
M  V30 16 C 0.0 -0.5 0.0 0
M  V30 17 N 4.3301 0.0 0.0 0
M  V30 END ATOM
M  V30 BEGIN BOND
M  V30 1 1 1 2
M  V30 2 2 2 3
M  V30 3 1 2 4
M  V30 4 1 3 5
M  V30 5 2 4 6
M  V30 6 2 5 7
M  V30 7 1 7 8
M  V30 8 2 8 9
M  V30 9 1 8 10
M  V30 10 1 9 11
M  V30 11 1 9 12
M  V30 12 2 10 13
M  V30 13 1 10 14
M  V30 14 2 11 15
M  V30 15 1 14 16
M  V30 16 1 15 17
M  V30 17 1 6 7
M  V30 18 1 13 15
M  V30 END BOND
M  V30 END CTAB
M  END
>  <Molecule Name>


>  <status>
-

>  <cas>
58-14-0

>  <name>
PYRIMETHAMINE

>  <ID>
121

>  <Smiles>
CCc1nc(N)nc(N)c1-c(cc1)ccc1Cl

$$$$

Actelion Java MolfileCreator 2.0

  0  0  0  0  0  0              0 V3000
M  V30 BEGIN CTAB
M  V30 COUNTS 17 17 0 0 0
M  V30 BEGIN ATOM
M  V30 1 O 6.0621 0.0 0.0 0
M  V30 2 C 5.1961 -0.5 0.0 0
M  V30 3 O 4.3301 0.0 0.0 0
M  V30 4 C 5.1961 -1.4999 0.0 0
M  V30 5 C 3.4641 -0.5 0.0 0
M  V30 6 C 4.3301 -1.9999 0.0 0
M  V30 7 C 6.0621 -2.0 0.0 0
M  V30 8 C 2.598 0.0 0.0 0
M  V30 9 C 4.3301 -2.9999 0.0 0
M  V30 10 C 6.0621 -3.0 0.0 0
M  V30 11 N 1.732 -0.5 0.0 0
M  V30 12 C 5.1961 -3.5 0.0 0
M  V30 13 C 1.732 -1.5 0.0 0
M  V30 14 C 0.866 0.0 0.0 0
M  V30 15 N 5.1961 -4.5 0.0 0
M  V30 16 C 2.598 -1.9999 0.0 0
M  V30 17 C 0.0 -0.5 0.0 0
M  V30 END ATOM
M  V30 BEGIN BOND
M  V30 1 2 1 2
M  V30 2 1 2 3
M  V30 3 1 2 4
M  V30 4 1 3 5
M  V30 5 2 4 6
M  V30 6 1 4 7
M  V30 7 1 5 8
M  V30 8 1 6 9
M  V30 9 2 7 10
M  V30 10 1 8 11
M  V30 11 2 9 12
M  V30 12 1 11 13
M  V30 13 1 11 14
M  V30 14 1 12 15
M  V30 15 1 13 16
M  V30 16 1 14 17
M  V30 17 1 10 12
M  V30 END BOND
M  V30 END CTAB
M  END
>  <Molecule Name>


>  <status>
DISCONTINUED

>  <cas>
59-46-1

>  <name>
PROCAINE

>  <ID>
122

>  <Smiles>
CCN(CC)CCOC(c(cc1)ccc1N)=O

$$$$

Actelion Java MolfileCreator 2.0

  0  0  0  0  0  0              0 V3000
M  V30 BEGIN CTAB
M  V30 COUNTS 21 22 0 0 0
M  V30 BEGIN ATOM
M  V30 1 Cl 6.0621 0.0 0.0 0
M  V30 2 C 5.1961 -0.5 0.0 0
M  V30 3 C 4.3301 0.0 0.0 0
M  V30 4 N 3.4641 -0.5 0.0 0
M  V30 5 C 2.598 0.0 0.0 0 CFG=2
M  V30 6 C 3.4641 -1.5 0.0 0
M  V30 7 C 1.732 -0.5 0.0 0
M  V30 8 C 2.598 1.0 0.0 0
M  V30 9 C 4.3301 -2.0 0.0 0
M  V30 10 O 0.866 0.0 0.0 0
M  V30 11 C 4.3301 -3.0 0.0 0
M  V30 12 C 5.1961 -1.5 0.0 0
M  V30 13 C 0.0 -0.5 0.0 0
M  V30 14 C 5.1961 -3.5 0.0 0
M  V30 15 C 6.0621 -2.0 0.0 0
M  V30 16 C -0.866 0.0 0.0 0
M  V30 17 C 0.0 -1.4999 0.0 0
M  V30 18 C 6.0621 -3.0 0.0 0
M  V30 19 C -1.732 -0.4999 0.0 0
M  V30 20 C -0.866 -1.9999 0.0 0
M  V30 21 C -1.732 -1.4999 0.0 0
M  V30 END ATOM
M  V30 BEGIN BOND
M  V30 1 1 1 2
M  V30 2 1 2 3
M  V30 3 1 3 4
M  V30 4 1 5 4 CFG=3
M  V30 5 1 4 6
M  V30 6 1 5 7
M  V30 7 1 5 8
M  V30 8 1 6 9
M  V30 9 1 7 10
M  V30 10 2 9 11
M  V30 11 1 9 12
M  V30 12 1 10 13
M  V30 13 1 11 14
M  V30 14 2 12 15
M  V30 15 2 13 16
M  V30 16 1 13 17
M  V30 17 2 14 18
M  V30 18 1 16 19
M  V30 19 2 17 20
M  V30 20 2 19 21
M  V30 21 1 15 18
M  V30 22 1 20 21
M  V30 END BOND
M  V30 BEGIN COLLECTION
M  V30 MDLV30/STERAC1 ATOMS=(1 5)
M  V30 END COLLECTION
M  V30 END CTAB
M  END
>  <Molecule Name>


>  <status>
-

>  <cas>
59-96-1

>  <name>
PHENOXYBENZAMINE

>  <ID>
123

>  <Smiles>
CC(COc1ccccc1)N(CCCl)Cc1ccccc1

$$$$

Actelion Java MolfileCreator 2.0

  0  0  0  0  0  0              0 V3000
M  V30 BEGIN CTAB
M  V30 COUNTS 13 13 0 0 0
M  V30 BEGIN ATOM
M  V30 1 O 5.1961 -0.5 0.0 0
M  V30 2 C 4.3301 0.0 0.0 0
M  V30 3 C 4.3301 1.0 0.0 0
M  V30 4 C 3.4641 -0.4999 0.0 0
M  V30 5 O 5.1961 1.5 0.0 0
M  V30 6 C 3.4641 1.5 0.0 0
M  V30 7 C 2.598 0.0 0.0 0
M  V30 8 C 2.598 1.0 0.0 0
M  V30 9 C 1.732 -0.5 0.0 0 CFG=1
M  V30 10 O 1.732 -1.5 0.0 0
M  V30 11 C 0.866 0.0 0.0 0 CFG=1
M  V30 12 N 0.866 1.0 0.0 0
M  V30 13 C 0.0 -0.5 0.0 0
M  V30 END ATOM
M  V30 BEGIN BOND
M  V30 1 1 1 2
M  V30 2 2 2 3
M  V30 3 1 2 4
M  V30 4 1 3 5
M  V30 5 1 3 6
M  V30 6 2 4 7
M  V30 7 2 6 8
M  V30 8 1 9 7
M  V30 9 1 9 10 CFG=1
M  V30 10 1 11 9
M  V30 11 1 11 12 CFG=3
M  V30 12 1 11 13
M  V30 13 1 7 8
M  V30 END BOND
M  V30 BEGIN COLLECTION
M  V30 MDLV30/STERAC1 ATOMS=(2 9 11)
M  V30 END COLLECTION
M  V30 END CTAB
M  END
>  <Molecule Name>


>  <status>
-

>  <cas>
829-74-3

>  <name>
LEVONORDEFRIN

>  <ID>
124

>  <Smiles>
C[C@@H]([C@@H](c(cc1)cc(O)c1O)O)N

$$$$

Actelion Java MolfileCreator 2.0

  0  0  0  0  0  0              0 V3000
M  V30 BEGIN CTAB
M  V30 COUNTS 17 18 0 0 0
M  V30 BEGIN ATOM
M  V30 1 O 7.623 3.3307 0.0 0
M  V30 2 N 6.1312 3.1739 0.0 0 CHG=1
M  V30 3 O 5.2495 4.3874 0.0 0 CHG=-1
M  V30 4 C 5.5211 1.8036 0.0 0
M  V30 5 O 4.0539 1.4917 0.0 0
M  V30 6 C 6.2711 0.5046 0.0 0
M  V30 7 C 3.8971 0.0 0.0 0
M  V30 8 C 5.2674 -0.6101 0.0 0
M  V30 9 C 2.598 -0.75 0.0 0
M  V30 10 N 1.299 0.0 0.0 0
M  V30 11 N 1.299 1.5 0.0 0
M  V30 12 C 0.0855 2.3816 0.0 0
M  V30 13 C 2.5125 2.3816 0.0 0
M  V30 14 O -1.341 1.9181 0.0 0
M  V30 15 N 0.549 3.8082 0.0 0
M  V30 16 C 2.049 3.8082 0.0 0
M  V30 17 O 2.9307 5.0217 0.0 0
M  V30 END ATOM
M  V30 BEGIN BOND
M  V30 1 2 1 2
M  V30 2 1 2 3
M  V30 3 1 2 4
M  V30 4 1 4 5
M  V30 5 2 4 6
M  V30 6 1 5 7
M  V30 7 1 6 8
M  V30 8 1 7 9
M  V30 9 2 9 10
M  V30 10 1 10 11
M  V30 11 1 11 12
M  V30 12 1 11 13
M  V30 13 2 12 14
M  V30 14 1 12 15
M  V30 15 1 13 16
M  V30 16 2 16 17
M  V30 17 2 7 8
M  V30 18 1 15 16
M  V30 END BOND
M  V30 END CTAB
M  END
>  <Molecule Name>


>  <status>
-

>  <cas>
67-20-9

>  <name>
NITROFURANTOIN

>  <ID>
125

>  <Smiles>
[O-][N+](c1ccc(/C=N\N(CC(N2)=O)C2=O)o1)=O

$$$$

Actelion Java MolfileCreator 2.0

  0  0  0  0  0  0              0 V3000
M  V30 BEGIN CTAB
M  V30 COUNTS 21 22 0 0 0
M  V30 BEGIN ATOM
M  V30 1 Cl 6.0621 0.0 0.0 0
M  V30 2 C 5.1961 -0.5 0.0 0
M  V30 3 C 4.3301 0.0 0.0 0
M  V30 4 N 3.4641 -0.5 0.0 0
M  V30 5 C 2.598 0.0 0.0 0 CFG=2
M  V30 6 C 3.4641 -1.5 0.0 0
M  V30 7 C 1.732 -0.5 0.0 0
M  V30 8 C 2.598 1.0 0.0 0
M  V30 9 C 4.3301 -2.0 0.0 0
M  V30 10 O 0.866 0.0 0.0 0
M  V30 11 C 4.3301 -3.0 0.0 0
M  V30 12 C 5.1961 -1.5 0.0 0
M  V30 13 C 0.0 -0.5 0.0 0
M  V30 14 C 5.1961 -3.5 0.0 0
M  V30 15 C 6.0621 -2.0 0.0 0
M  V30 16 C -0.866 0.0 0.0 0
M  V30 17 C 0.0 -1.4999 0.0 0
M  V30 18 C 6.0621 -3.0 0.0 0
M  V30 19 C -1.732 -0.4999 0.0 0
M  V30 20 C -0.866 -1.9999 0.0 0
M  V30 21 C -1.732 -1.4999 0.0 0
M  V30 END ATOM
M  V30 BEGIN BOND
M  V30 1 1 1 2
M  V30 2 1 2 3
M  V30 3 1 3 4
M  V30 4 1 5 4 CFG=3
M  V30 5 1 4 6
M  V30 6 1 5 7
M  V30 7 1 5 8
M  V30 8 1 6 9
M  V30 9 1 7 10
M  V30 10 2 9 11
M  V30 11 1 9 12
M  V30 12 1 10 13
M  V30 13 1 11 14
M  V30 14 2 12 15
M  V30 15 2 13 16
M  V30 16 1 13 17
M  V30 17 2 14 18
M  V30 18 1 16 19
M  V30 19 2 17 20
M  V30 20 2 19 21
M  V30 21 1 15 18
M  V30 22 1 20 21
M  V30 END BOND
M  V30 BEGIN COLLECTION
M  V30 MDLV30/STERAC1 ATOMS=(1 5)
M  V30 END COLLECTION
M  V30 END CTAB
M  END
>  <Molecule Name>


>  <status>
-

>  <cas>
59-96-1

>  <name>
PHENOXYBENZAMINE

>  <ID>
126

>  <Smiles>
CC(COc1ccccc1)N(CCCl)Cc1ccccc1

$$$$

Actelion Java MolfileCreator 2.0

  0  0  0  0  0  0              0 V3000
M  V30 BEGIN CTAB
M  V30 COUNTS 19 22 0 0 0
M  V30 BEGIN ATOM
M  V30 1 O 0.866 0.0 0.0 0
M  V30 2 C 0.0 -0.5 0.0 0
M  V30 3 C -0.866 0.0 0.0 0
M  V30 4 C 0.0 -1.4999 0.0 0
M  V30 5 C -1.732 -0.4999 0.0 0
M  V30 6 C -0.866 -1.9999 0.0 0
M  V30 7 C -1.732 -1.4999 0.0 0
M  V30 8 C -2.598 0.0 0.0 0 CFG=2
M  V30 9 C -2.598 -1.9999 0.0 0
M  V30 10 C -3.4641 -0.4999 0.0 0 CFG=1
M  V30 11 C -3.7527 0.6666 0.0 0
M  V30 12 C -2.598 1.0 0.0 0
M  V30 13 C -3.4641 -1.4999 0.0 0 CFG=1
M  V30 14 C -4.2611 -0.0641 0.0 0
M  V30 15 C -4.6738 0.1741 0.0 0
M  V30 16 C -3.4641 1.5 0.0 0
M  V30 17 N -4.6188 -0.8333 0.0 0
M  V30 18 C -4.3301 1.0 0.0 0
M  V30 19 C -5.4848 -1.3333 0.0 0
M  V30 END ATOM
M  V30 BEGIN BOND
M  V30 1 1 1 2
M  V30 2 2 2 3
M  V30 3 1 2 4
M  V30 4 1 3 5
M  V30 5 2 4 6
M  V30 6 2 5 7
M  V30 7 1 8 5
M  V30 8 1 7 9
M  V30 9 1 10 8
M  V30 10 1 8 11 CFG=3
M  V30 11 1 8 12
M  V30 12 1 13 9
M  V30 13 1 10 14 CFG=1
M  V30 14 1 11 15
M  V30 15 1 12 16
M  V30 16 1 13 17 CFG=3
M  V30 17 1 14 18
M  V30 18 1 17 19
M  V30 19 1 6 7
M  V30 20 1 10 13
M  V30 21 1 15 17
M  V30 22 1 16 18
M  V30 END BOND
M  V30 BEGIN COLLECTION
M  V30 MDLV30/STERAC1 ATOMS=(3 8 10 13)
M  V30 END COLLECTION
M  V30 END CTAB
M  END
>  <Molecule Name>


>  <status>
-

>  <cas>
77-07-6

>  <name>
LEVORPHANOL

>  <ID>
127

>  <Smiles>
CN(CC1)[C@@H](C2)[C@@H](CCCC3)[C@@]13c1c2ccc(O)c1

$$$$

Actelion Java MolfileCreator 2.0

  0  0  0  0  0  0              0 V3000
M  V30 BEGIN CTAB
M  V30 COUNTS 27 29 0 0 0
M  V30 BEGIN ATOM
M  V30 1 O 9.0932 0.0 0.0 0
M  V30 2 C 7.7942 -0.75 0.0 0
M  V30 3 O 6.4951 0.0 0.0 0
M  V30 4 C 7.7942 -2.25 0.0 0
M  V30 5 C 6.4951 1.5 0.0 0
M  V30 6 C 6.4951 -2.9999 0.0 0
M  V30 7 C 9.0932 -3.0 0.0 0
M  V30 8 C 7.7942 2.25 0.0 0
M  V30 9 C 6.4951 -4.4999 0.0 0
M  V30 10 C 5.1961 -2.2499 0.0 0
M  V30 11 C 9.0932 -4.5 0.0 0
M  V30 12 C 10.3923 -2.25 0.0 0
M  V30 13 N 7.7942 3.75 0.0 0 CHG=1
M  V30 14 O 7.7942 -5.25 0.0 0
M  V30 15 C 5.1961 -5.2499 0.0 0
M  V30 16 C 3.8971 -2.9999 0.0 0
M  V30 17 C 10.3923 -5.25 0.0 0
M  V30 18 C 11.6913 -3.0 0.0 0
M  V30 19 C 9.0932 4.5 0.0 0
M  V30 20 C 6.4951 4.5 0.0 0
M  V30 21 C 9.0932 3.0 0.0 0
M  V30 22 C 3.8971 -4.4999 0.0 0
M  V30 23 C 11.6913 -4.5 0.0 0
M  V30 24 C 10.3923 3.75 0.0 0
M  V30 25 C 9.0932 5.9999 0.0 0
M  V30 26 C 5.1961 3.75 0.0 0
M  V30 27 C 6.4951 6.0 0.0 0
M  V30 END ATOM
M  V30 BEGIN BOND
M  V30 1 2 1 2
M  V30 2 1 2 3
M  V30 3 1 2 4
M  V30 4 1 3 5
M  V30 5 1 4 6
M  V30 6 1 4 7
M  V30 7 1 5 8
M  V30 8 2 6 9
M  V30 9 1 6 10
M  V30 10 2 7 11
M  V30 11 1 7 12
M  V30 12 1 8 13
M  V30 13 1 9 14
M  V30 14 1 9 15
M  V30 15 2 10 16
M  V30 16 1 11 17
M  V30 17 2 12 18
M  V30 18 1 13 19
M  V30 19 1 13 20
M  V30 20 1 13 21
M  V30 21 2 15 22
M  V30 22 2 17 23
M  V30 23 1 19 24
M  V30 24 1 19 25
M  V30 25 1 20 26
M  V30 26 1 20 27
M  V30 27 1 11 14
M  V30 28 1 16 22
M  V30 29 1 18 23
M  V30 END BOND
M  V30 END CTAB
M  END
>  <Molecule Name>


>  <status>
DISCONTINUED

>  <cas>
298-50-0

>  <name>
PROPANTHELINE

>  <ID>
128

>  <Smiles>
CC(C)[N+](C)(CCOC(C1c(cccc2)c2Oc2c1cccc2)=O)C(C)C

$$$$

Actelion Java MolfileCreator 2.0

  0  0  0  0  0  0              0 V3000
M  V30 BEGIN CTAB
M  V30 COUNTS 19 21 0 0 0
M  V30 BEGIN ATOM
M  V30 1 O 1.3208 0.0 0.0 0
M  V30 2 C 0.0 -0.7625 0.0 0
M  V30 3 N -1.3933 -0.1422 0.0 0
M  V30 4 N -0.1594 -2.2794 0.0 0
M  V30 5 C -2.4138 -1.2756 0.0 0
M  V30 6 C -1.6512 -2.5965 0.0 0
M  V30 7 O -3.8703 -0.8881 0.0 0
M  V30 8 C -2.2716 -3.9898 0.0 0
M  V30 9 C -3.1744 -2.6763 0.0 0
M  V30 10 C -3.6116 -4.4065 0.0 0
M  V30 11 C -1.3751 -5.2237 0.0 0
M  V30 12 C -4.0352 -1.5112 0.0 0
M  V30 13 C -3.9552 -3.9067 0.0 0
M  V30 14 C -4.4088 -5.5426 0.0 0
M  V30 15 C -1.9955 -6.6171 0.0 0
M  V30 16 C -5.5281 -1.477 0.0 0
M  V30 17 C -5.3899 -4.1151 0.0 0
M  V30 18 C -3.5123 -6.7765 0.0 0
M  V30 19 C -6.2206 -2.836 0.0 0
M  V30 END ATOM
M  V30 BEGIN BOND
M  V30 1 2 1 2
M  V30 2 1 2 3
M  V30 3 1 2 4
M  V30 4 1 3 5
M  V30 5 1 4 6
M  V30 6 2 5 7
M  V30 7 1 6 8
M  V30 8 1 6 9
M  V30 9 2 8 10
M  V30 10 1 8 11
M  V30 11 2 9 12
M  V30 12 1 9 13
M  V30 13 1 10 14
M  V30 14 2 11 15
M  V30 15 1 12 16
M  V30 16 2 13 17
M  V30 17 2 14 18
M  V30 18 2 16 19
M  V30 19 1 5 6
M  V30 20 1 15 18
M  V30 21 1 17 19
M  V30 END BOND
M  V30 END CTAB
M  END
>  <Molecule Name>


>  <status>
-

>  <cas>
57-41-0

>  <name>
PHENYTOIN

>  <ID>
129

>  <Smiles>
O=C(C(c1ccccc1)(c1ccccc1)N1)NC1=O

$$$$

Actelion Java MolfileCreator 2.0

  0  0  0  0  0  0              0 V3000
M  V30 BEGIN CTAB
M  V30 COUNTS 20 21 0 0 0
M  V30 BEGIN ATOM
M  V30 1 Cl 7.7942 -2.0 0.0 0
M  V30 2 C 6.9282 -1.5 0.0 0
M  V30 3 C 6.9282 -0.5 0.0 0
M  V30 4 C 6.0621 -2.0 0.0 0
M  V30 5 C 6.0621 0.0 0.0 0
M  V30 6 C 5.1961 -1.5 0.0 0
M  V30 7 C 5.1961 -0.5 0.0 0
M  V30 8 C 4.3301 0.0 0.0 0 CFG=2
M  V30 9 O 3.4641 -0.5 0.0 0
M  V30 10 C 4.3301 1.0 0.0 0
M  V30 11 C 2.598 0.0 0.0 0
M  V30 12 N 5.1961 1.4999 0.0 0
M  V30 13 C 3.4641 1.5 0.0 0
M  V30 14 C 1.732 -0.5 0.0 0
M  V30 15 C 5.1961 2.4999 0.0 0
M  V30 16 C 3.4641 2.5 0.0 0
M  V30 17 N 0.866 0.0 0.0 0
M  V30 18 C 4.3301 2.9999 0.0 0
M  V30 19 C 0.866 1.0 0.0 0
M  V30 20 C 0.0 -0.5 0.0 0
M  V30 END ATOM
M  V30 BEGIN BOND
M  V30 1 1 1 2
M  V30 2 2 2 3
M  V30 3 1 2 4
M  V30 4 1 3 5
M  V30 5 2 4 6
M  V30 6 2 5 7
M  V30 7 1 8 7
M  V30 8 1 8 9 CFG=3
M  V30 9 1 8 10
M  V30 10 1 9 11
M  V30 11 2 10 12
M  V30 12 1 10 13
M  V30 13 1 11 14
M  V30 14 1 12 15
M  V30 15 2 13 16
M  V30 16 1 14 17
M  V30 17 2 15 18
M  V30 18 1 17 19
M  V30 19 1 17 20
M  V30 20 1 6 7
M  V30 21 1 16 18
M  V30 END BOND
M  V30 BEGIN COLLECTION
M  V30 MDLV30/STERAC1 ATOMS=(1 8)
M  V30 END COLLECTION
M  V30 END CTAB
M  END
>  <Molecule Name>


>  <status>
-

>  <cas>
486-16-8

>  <name>
CARBINOXAMINE

>  <ID>
130

>  <Smiles>
CN(C)CCOC(c(cc1)ccc1Cl)c1ncccc1

$$$$

Actelion Java MolfileCreator 2.0

  0  0  0  0  0  0              0 V3000
M  V30 BEGIN CTAB
M  V30 COUNTS 17 19 0 0 0
M  V30 BEGIN ATOM
M  V30 1 O 0.866 0.0 0.0 0
M  V30 2 C 0.0 -0.5 0.0 0
M  V30 3 C -0.9135 -0.0932 0.0 0
M  V30 4 C -0.1045 -1.4945 0.0 0
M  V30 5 C -1.5826 -0.8364 0.0 0
M  V30 6 C -1.2225 0.8577 0.0 0
M  V30 7 C 0.6386 -2.1636 0.0 0
M  V30 8 C -1.0826 -1.7024 0.0 0
M  V30 9 C -2.5608 -0.6284 0.0 0
M  V30 10 C -2.2007 1.0657 0.0 0
M  V30 11 C 0.4307 -3.1418 0.0 0
M  V30 12 C 1.5896 -1.8546 0.0 0
M  V30 13 O -1.4894 -2.6159 0.0 0
M  V30 14 C -2.8698 0.3225 0.0 0
M  V30 15 C 1.1738 -3.8109 0.0 0
M  V30 16 C 2.3328 -2.5237 0.0 0
M  V30 17 C 2.1249 -3.5019 0.0 0
M  V30 END ATOM
M  V30 BEGIN BOND
M  V30 1 2 1 2
M  V30 2 1 2 3
M  V30 3 1 2 4
M  V30 4 2 3 5
M  V30 5 1 3 6
M  V30 6 1 4 7
M  V30 7 1 4 8
M  V30 8 1 5 9
M  V30 9 2 6 10
M  V30 10 2 7 11
M  V30 11 1 7 12
M  V30 12 2 8 13
M  V30 13 2 9 14
M  V30 14 1 11 15
M  V30 15 2 12 16
M  V30 16 2 15 17
M  V30 17 1 5 8
M  V30 18 1 10 14
M  V30 19 1 16 17
M  V30 END BOND
M  V30 END CTAB
M  END
>  <Molecule Name>


>  <status>
DISCONTINUED

>  <cas>
83-12-5

>  <name>
PHENINDIONE

>  <ID>
131

>  <Smiles>
O=C(C1c2ccccc2)c(cccc2)c2C1=O

$$$$

Actelion Java MolfileCreator 2.0

  0  0  0  0  0  0              0 V3000
M  V30 BEGIN CTAB
M  V30 COUNTS 23 26 0 0 0
M  V30 BEGIN ATOM
M  V30 1 O 2.598 1.0 0.0 0
M  V30 2 C 2.598 0.0 0.0 0
M  V30 3 O 3.4641 -0.5 0.0 0
M  V30 4 C 1.732 -0.5 0.0 0 CFG=1
M  V30 5 C 4.3301 0.0 0.0 0 CFG=2
M  V30 6 C 1.732 -1.5 0.0 0
M  V30 7 C 0.866 0.0 0.0 0
M  V30 8 C 4.3216 1.0295 0.0 0
M  V30 9 C 5.2104 -0.5231 0.0 0
M  V30 10 C 0.866 -1.9999 0.0 0
M  V30 11 C 2.598 -2.0 0.0 0
M  V30 12 O 0.0 -0.5 0.0 0
M  V30 13 C 5.5386 1.6319 0.0 0 CFG=1
M  V30 14 C 6.3476 0.2306 0.0 0 CFG=2
M  V30 15 C 0.866 -2.9999 0.0 0
M  V30 16 C 2.598 -3.0 0.0 0
M  V30 17 N 5.4341 0.6374 0.0 0 CHG=1
M  V30 18 C 6.5168 1.8398 0.0 0 CFG=2
M  V30 19 C 7.0168 0.9738 0.0 0 CFG=1
M  V30 20 C 1.732 -3.5 0.0 0
M  V30 21 C 4.451 0.5784 0.0 0
M  V30 22 C 4.9623 -0.1207 0.0 0
M  V30 23 O 7.5168 1.8398 0.0 0
M  V30 END ATOM
M  V30 BEGIN BOND
M  V30 1 2 1 2
M  V30 2 1 2 3
M  V30 3 1 4 2
M  V30 4 1 5 3 CFG=3
M  V30 5 1 4 6
M  V30 6 1 4 7 CFG=1
M  V30 7 1 5 8
M  V30 8 1 5 9
M  V30 9 2 6 10
M  V30 10 1 6 11
M  V30 11 1 7 12
M  V30 12 1 13 8
M  V30 13 1 14 9
M  V30 14 1 10 15
M  V30 15 2 11 16
M  V30 16 1 13 17 CFG=1
M  V30 17 1 18 13
M  V30 18 1 19 14
M  V30 19 2 15 20
M  V30 20 1 17 21
M  V30 21 1 17 22
M  V30 22 1 18 23 CFG=1
M  V30 23 1 14 17 CFG=1
M  V30 24 1 16 20
M  V30 25 1 18 19
M  V30 26 1 19 23 CFG=1
M  V30 END BOND
M  V30 BEGIN COLLECTION
M  V30 MDLV30/STEABS ATOMS=(5 5 13 14 18 19)
M  V30 MDLV30/STERAC1 ATOMS=(1 4)
M  V30 END COLLECTION
M  V30 END CTAB
M  END
>  <Molecule Name>


>  <status>
-

>  <cas>
13265-10-6

>  <name>
METHSCOPOLAMINE

>  <ID>
132

>  <Smiles>
C[N+]1(C)[C@@H](C2)[C@@H]3O[C@@H]3[C@H]1C[C@H]2OC(C(CO)c1ccccc1)=O

$$$$
_c001
Actelion Java MolfileCreator 2.0

  0  0  0  0  0  0              0 V3000
M  V30 BEGIN CTAB
M  V30 COUNTS 14 15 0 0 0
M  V30 BEGIN ATOM
M  V30 1 O 0.866 0.0 0.0 0
M  V30 2 C 0.0 -0.5 0.0 0
M  V30 3 N -0.9135 -0.0932 0.0 0
M  V30 4 C -0.1045 -1.4945 0.0 0 CFG=1
M  V30 5 C -1.5826 -0.8364 0.0 0
M  V30 6 C -1.1214 0.8848 0.0 0
M  V30 7 C 0.6386 -2.1636 0.0 0
M  V30 8 C -1.0826 -1.7024 0.0 0
M  V30 9 O -2.5771 -0.7318 0.0 0
M  V30 10 C 0.4307 -3.1418 0.0 0
M  V30 11 C 1.5896 -1.8546 0.0 0
M  V30 12 C 1.1738 -3.8109 0.0 0
M  V30 13 C 2.3328 -2.5237 0.0 0
M  V30 14 C 2.1249 -3.5019 0.0 0
M  V30 END ATOM
M  V30 BEGIN BOND
M  V30 1 2 1 2
M  V30 2 1 2 3
M  V30 3 1 4 2
M  V30 4 1 3 5
M  V30 5 1 3 6
M  V30 6 1 4 7 CFG=1
M  V30 7 1 4 8
M  V30 8 2 5 9
M  V30 9 2 7 10
M  V30 10 1 7 11
M  V30 11 1 10 12
M  V30 12 2 11 13
M  V30 13 2 12 14
M  V30 14 1 5 8
M  V30 15 1 13 14
M  V30 END BOND
M  V30 BEGIN COLLECTION
M  V30 MDLV30/STERAC1 ATOMS=(1 4)
M  V30 END COLLECTION
M  V30 END CTAB
M  END
>  <Molecule Name>
_c001

>  <status>
DISCONTINUED

>  <cas>
86-34-0

>  <name>
PHENSUXIMIDE

>  <ID>
133

>  <Smiles>
CN(C(CC1c2ccccc2)=O)C1=O

$$$$

Actelion Java MolfileCreator 2.0

  0  0  0  0  0  0              0 V3000
M  V30 BEGIN CTAB
M  V30 COUNTS 21 21 0 0 0
M  V30 BEGIN ATOM
M  V30 1 O 9.0932 0.0 0.0 0
M  V30 2 C 7.7942 -0.75 0.0 0
M  V30 3 O 6.4951 0.0 0.0 0
M  V30 4 C 7.7942 -2.25 0.0 0
M  V30 5 C 5.1961 -0.75 0.0 0
M  V30 6 C 6.4951 -2.9999 0.0 0
M  V30 7 C 9.0932 -3.0 0.0 0
M  V30 8 C 3.8971 0.0 0.0 0
M  V30 9 C 6.4951 -4.4999 0.0 0
M  V30 10 C 9.0932 -4.5 0.0 0
M  V30 11 N 2.598 -0.75 0.0 0
M  V30 12 N 5.1961 -5.2499 0.0 0
M  V30 13 C 7.7942 -5.25 0.0 0
M  V30 14 C 2.598 -2.25 0.0 0
M  V30 15 C 1.299 0.0 0.0 0
M  V30 16 O 7.7942 -6.75 0.0 0
M  V30 17 C 3.8971 -3.0 0.0 0
M  V30 18 C 0.0 -0.75 0.0 0
M  V30 19 C 9.0932 -7.5 0.0 0
M  V30 20 C 9.0932 -9.0 0.0 0
M  V30 21 C 10.3923 -9.75 0.0 0
M  V30 END ATOM
M  V30 BEGIN BOND
M  V30 1 2 1 2
M  V30 2 1 2 3
M  V30 3 1 2 4
M  V30 4 1 3 5
M  V30 5 2 4 6
M  V30 6 1 4 7
M  V30 7 1 5 8
M  V30 8 1 6 9
M  V30 9 2 7 10
M  V30 10 1 8 11
M  V30 11 1 9 12
M  V30 12 2 9 13
M  V30 13 1 11 14
M  V30 14 1 11 15
M  V30 15 1 13 16
M  V30 16 1 14 17
M  V30 17 1 15 18
M  V30 18 1 16 19
M  V30 19 1 19 20
M  V30 20 1 20 21
M  V30 21 1 10 13
M  V30 END BOND
M  V30 END CTAB
M  END
>  <Molecule Name>


>  <status>
-

>  <cas>
499-67-2

>  <name>
PROPARACAINE

>  <ID>
134

>  <Smiles>
CCCOc(ccc(C(OCCN(CC)CC)=O)c1)c1N

$$$$

Actelion Java MolfileCreator 2.0

  0  0  0  0  0  0              0 V3000
M  V30 BEGIN CTAB
M  V30 COUNTS 20 21 0 0 0
M  V30 BEGIN ATOM
M  V30 1 Cl 7.7942 -2.0 0.0 0
M  V30 2 C 6.9282 -1.5 0.0 0
M  V30 3 C 6.9282 -0.5 0.0 0
M  V30 4 C 6.0621 -2.0 0.0 0
M  V30 5 C 6.0621 0.0 0.0 0
M  V30 6 C 5.1961 -1.5 0.0 0
M  V30 7 C 5.1961 -0.5 0.0 0
M  V30 8 C 4.3301 0.0 0.0 0 CFG=2
M  V30 9 O 3.4641 -0.5 0.0 0
M  V30 10 C 4.3301 1.0 0.0 0
M  V30 11 C 2.598 0.0 0.0 0
M  V30 12 N 5.1961 1.4999 0.0 0
M  V30 13 C 3.4641 1.5 0.0 0
M  V30 14 C 1.732 -0.5 0.0 0
M  V30 15 C 5.1961 2.4999 0.0 0
M  V30 16 C 3.4641 2.5 0.0 0
M  V30 17 N 0.866 0.0 0.0 0
M  V30 18 C 4.3301 2.9999 0.0 0
M  V30 19 C 0.866 1.0 0.0 0
M  V30 20 C 0.0 -0.5 0.0 0
M  V30 END ATOM
M  V30 BEGIN BOND
M  V30 1 1 1 2
M  V30 2 2 2 3
M  V30 3 1 2 4
M  V30 4 1 3 5
M  V30 5 2 4 6
M  V30 6 2 5 7
M  V30 7 1 8 7
M  V30 8 1 8 9 CFG=3
M  V30 9 1 8 10
M  V30 10 1 9 11
M  V30 11 2 10 12
M  V30 12 1 10 13
M  V30 13 1 11 14
M  V30 14 1 12 15
M  V30 15 2 13 16
M  V30 16 1 14 17
M  V30 17 2 15 18
M  V30 18 1 17 19
M  V30 19 1 17 20
M  V30 20 1 6 7
M  V30 21 1 16 18
M  V30 END BOND
M  V30 BEGIN COLLECTION
M  V30 MDLV30/STERAC1 ATOMS=(1 8)
M  V30 END COLLECTION
M  V30 END CTAB
M  END
>  <Molecule Name>


>  <status>
-

>  <cas>
486-16-8

>  <name>
CARBINOXAMINE

>  <ID>
135

>  <Smiles>
CN(C)CCOC(c(cc1)ccc1Cl)c1ncccc1

$$$$

Actelion Java MolfileCreator 2.0

  0  0  0  0  0  0              0 V3000
M  V30 BEGIN CTAB
M  V30 COUNTS 13 13 0 0 0
M  V30 BEGIN ATOM
M  V30 1 S 4.0874 2.1159 0.0 0
M  V30 2 O 5.001 1.7092 0.0 0
M  V30 3 O 3.1739 2.5227 0.0 0
M  V30 4 N 4.4942 3.0295 0.0 0
M  V30 5 C 3.6807 1.2024 0.0 0
M  V30 6 S 2.7026 0.9945 0.0 0
M  V30 7 N 4.1807 0.3364 0.0 0
M  V30 8 C 2.598 0.0 0.0 0
M  V30 9 N 3.5116 -0.4067 0.0 0
M  V30 10 N 1.732 -0.5 0.0 0
M  V30 11 C 0.866 0.0 0.0 0
M  V30 12 O 0.866 1.0 0.0 0
M  V30 13 C 0.0 -0.5 0.0 0
M  V30 END ATOM
M  V30 BEGIN BOND
M  V30 1 2 1 2
M  V30 2 2 1 3
M  V30 3 1 1 4
M  V30 4 1 1 5
M  V30 5 1 5 6
M  V30 6 2 5 7
M  V30 7 1 6 8
M  V30 8 1 7 9
M  V30 9 1 8 10
M  V30 10 1 10 11
M  V30 11 2 11 12
M  V30 12 1 11 13
M  V30 13 2 8 9
M  V30 END BOND
M  V30 END CTAB
M  END
>  <Molecule Name>


>  <status>
-

>  <cas>
59-66-5

>  <name>
ACETAZOLAMIDE

>  <ID>
136

>  <Smiles>
CC(Nc(s1)nnc1S(N)(=O)=O)=O

$$$$

Actelion Java MolfileCreator 2.0

  0  0  0  0  0  0              0 V3000
M  V30 BEGIN CTAB
M  V30 COUNTS 21 23 0 0 0
M  V30 BEGIN ATOM
M  V30 1 O 3.4641 -0.5 0.0 0
M  V30 2 C 2.598 0.0 0.0 0 CFG=2
M  V30 3 C 2.598 1.0 0.0 0
M  V30 4 C 2.598 -1.0 0.0 0
M  V30 5 C 1.732 -0.5 0.0 0
M  V30 6 C 3.4641 1.5 0.0 0
M  V30 7 C 1.732 1.4999 0.0 0
M  V30 8 C 1.789 -1.5877 0.0 0
M  V30 9 C 3.407 -1.5877 0.0 0
M  V30 10 C 0.866 0.0 0.0 0
M  V30 11 C 3.4641 2.5 0.0 0
M  V30 12 C 1.732 2.5 0.0 0
M  V30 13 C 2.098 -2.5388 0.0 0
M  V30 14 C 3.098 -2.5388 0.0 0
M  V30 15 N 0.0 -0.5 0.0 0
M  V30 16 C 2.598 3.0 0.0 0
M  V30 17 C -0.866 0.0 0.0 0
M  V30 18 C 0.0 -1.4999 0.0 0
M  V30 19 C -1.732 -0.4999 0.0 0
M  V30 20 C -0.866 -1.9999 0.0 0
M  V30 21 C -1.732 -1.4999 0.0 0
M  V30 END ATOM
M  V30 BEGIN BOND
M  V30 1 1 2 1
M  V30 2 1 2 3
M  V30 3 1 2 4 CFG=1
M  V30 4 1 2 5
M  V30 5 2 3 6
M  V30 6 1 3 7
M  V30 7 1 4 8
M  V30 8 1 4 9
M  V30 9 1 5 10
M  V30 10 1 6 11
M  V30 11 2 7 12
M  V30 12 1 8 13
M  V30 13 1 9 14
M  V30 14 1 10 15
M  V30 15 2 11 16
M  V30 16 1 15 17
M  V30 17 1 15 18
M  V30 18 1 17 19
M  V30 19 1 18 20
M  V30 20 1 19 21
M  V30 21 1 12 16
M  V30 22 1 13 14
M  V30 23 1 20 21
M  V30 END BOND
M  V30 BEGIN COLLECTION
M  V30 MDLV30/STERAC1 ATOMS=(1 2)
M  V30 END COLLECTION
M  V30 END CTAB
M  END
>  <Molecule Name>


>  <status>
DISCONTINUED

>  <cas>
77-39-4

>  <name>
CYCRIMINE

>  <ID>
137

>  <Smiles>
OC(CCN1CCCCC1)(C1CCCC1)c1ccccc1

$$$$

Actelion Java MolfileCreator 2.0

  0  0  0  0  0  0              0 V3000
M  V30 BEGIN CTAB
M  V30 COUNTS 16 18 0 0 0
M  V30 BEGIN ATOM
M  V30 1 O 3.4641 2.5 0.0 0
M  V30 2 C 3.4641 1.5 0.0 0
M  V30 3 O 2.598 1.0 0.0 0
M  V30 4 C 4.3301 1.0 0.0 0
M  V30 5 C 2.598 0.0 0.0 0
M  V30 6 C 4.3301 0.0 0.0 0
M  V30 7 C 1.732 -0.5 0.0 0
M  V30 8 C 3.4641 -0.4999 0.0 0
M  V30 9 O 0.866 0.0 0.0 0
M  V30 10 C 1.732 -1.5 0.0 0
M  V30 11 C 3.4641 -1.4999 0.0 0
M  V30 12 C 0.0 -0.5 0.0 0
M  V30 13 O 0.9889 -2.1691 0.0 0
M  V30 14 C 2.598 -1.9999 0.0 0
M  V30 15 C 1.3956 -3.0826 0.0 0
M  V30 16 C 2.3901 -2.9781 0.0 0
M  V30 END ATOM
M  V30 BEGIN BOND
M  V30 1 2 1 2
M  V30 2 1 2 3
M  V30 3 1 2 4
M  V30 4 1 3 5
M  V30 5 2 4 6
M  V30 6 2 5 7
M  V30 7 1 5 8
M  V30 8 1 7 9
M  V30 9 1 7 10
M  V30 10 2 8 11
M  V30 11 1 9 12
M  V30 12 1 10 13
M  V30 13 2 10 14
M  V30 14 1 13 15
M  V30 15 1 14 16
M  V30 16 1 6 8
M  V30 17 1 11 14
M  V30 18 2 15 16
M  V30 END BOND
M  V30 END CTAB
M  END
>  <Molecule Name>


>  <status>
-

>  <cas>
298-81-7

>  <name>
METHOXSALEN

>  <ID>
138

>  <Smiles>
COc(c(occ1)c1cc1C=C2)c1OC2=O

$$$$

Actelion Java MolfileCreator 2.0

  0  0  0  0  0  0              0 V3000
M  V30 BEGIN CTAB
M  V30 COUNTS 10 11 0 0 0
M  V30 BEGIN ATOM
M  V30 1 S 1.299 0.0 0.0 0
M  V30 2 C 0.0 -0.75 0.0 0
M  V30 3 N 0.0 -2.25 0.0 0
M  V30 4 C -1.299 0.0 0.0 0
M  V30 5 C -1.299 -2.9999 0.0 0
M  V30 6 N -1.6109 1.4672 0.0 0
M  V30 7 C -2.598 -0.7499 0.0 0
M  V30 8 N -2.598 -2.2499 0.0 0
M  V30 9 C -3.1026 1.624 0.0 0
M  V30 10 N -3.7127 0.2536 0.0 0
M  V30 END ATOM
M  V30 BEGIN BOND
M  V30 1 2 1 2
M  V30 2 1 2 3
M  V30 3 1 2 4
M  V30 4 2 3 5
M  V30 5 1 4 6
M  V30 6 2 4 7
M  V30 7 1 5 8
M  V30 8 1 6 9
M  V30 9 1 7 10
M  V30 10 1 7 8
M  V30 11 2 9 10
M  V30 END BOND
M  V30 END CTAB
M  END
>  <Molecule Name>


>  <status>
-

>  <cas>
50-44-2

>  <name>
MERCAPTOPURINE

>  <ID>
139

>  <Smiles>
S=C1N=CNc2c1[nH]cn2

$$$$

Actelion Java MolfileCreator 2.0

  0  0  0  0  0  0              0 V3000
M  V30 BEGIN CTAB
M  V30 COUNTS 22 24 0 0 0
M  V30 BEGIN ATOM
M  V30 1 S 6.0621 0.9999 0.0 0
M  V30 2 C 5.1961 1.4999 0.0 0
M  V30 3 C 6.0621 0.0 0.0 0
M  V30 4 C 4.3301 0.9999 0.0 0
M  V30 5 C 5.1961 2.4999 0.0 0
M  V30 6 C 5.1961 -0.5 0.0 0
M  V30 7 C 6.9282 -0.4999 0.0 0
M  V30 8 N 4.3301 0.0 0.0 0
M  V30 9 C 3.4641 1.5 0.0 0
M  V30 10 C 4.3301 2.9999 0.0 0
M  V30 11 C 5.1961 -1.5 0.0 0
M  V30 12 C 6.9282 -1.4999 0.0 0
M  V30 13 C 3.4641 -0.5 0.0 0
M  V30 14 C 3.4641 2.5 0.0 0
M  V30 15 C 6.0621 -1.9999 0.0 0
M  V30 16 C 2.598 0.0 0.0 0 CFG=1
M  V30 17 N 1.732 -0.5 0.0 0
M  V30 18 C 2.598 1.0 0.0 0
M  V30 19 C 1.732 -1.5 0.0 0
M  V30 20 C 0.866 0.0 0.0 0
M  V30 21 C 2.598 -1.9999 0.0 0
M  V30 22 C 0.0 -0.5 0.0 0
M  V30 END ATOM
M  V30 BEGIN BOND
M  V30 1 1 1 2
M  V30 2 1 1 3
M  V30 3 2 2 4
M  V30 4 1 2 5
M  V30 5 2 3 6
M  V30 6 1 3 7
M  V30 7 1 4 8
M  V30 8 1 4 9
M  V30 9 2 5 10
M  V30 10 1 6 11
M  V30 11 2 7 12
M  V30 12 1 8 13
M  V30 13 2 9 14
M  V30 14 2 11 15
M  V30 15 1 16 13
M  V30 16 1 16 17 CFG=1
M  V30 17 1 16 18
M  V30 18 1 17 19
M  V30 19 1 17 20
M  V30 20 1 19 21
M  V30 21 1 20 22
M  V30 22 1 6 8
M  V30 23 1 10 14
M  V30 24 1 12 15
M  V30 END BOND
M  V30 BEGIN COLLECTION
M  V30 MDLV30/STERAC1 ATOMS=(1 16)
M  V30 END COLLECTION
M  V30 END CTAB
M  END
>  <Molecule Name>


>  <status>
DISCONTINUED

>  <cas>
522-00-9

>  <name>
ETHOPROPAZINE

>  <ID>
140

>  <Smiles>
CCN(CC)C(C)CN1c(cccc2)c2Sc2c1cccc2

$$$$

Actelion Java MolfileCreator 2.0

  0  0  0  0  0  0              0 V3000
M  V30 BEGIN CTAB
M  V30 COUNTS 44 49 0 0 0
M  V30 BEGIN ATOM
M  V30 1 O 2.598 0.0 0.0 0
M  V30 2 C 1.732 -0.5 0.0 0
M  V30 3 O 0.866 0.0 0.0 0
M  V30 4 C 1.732 -1.5 0.0 0
M  V30 5 C 0.0 -0.5 0.0 0 CFG=1
M  V30 6 C 0.866 -2.0 0.0 0
M  V30 7 C 2.598 -1.9999 0.0 0
M  V30 8 C -0.866 0.0 0.0 0 CFG=2
M  V30 9 C 0.0 -1.4999 0.0 0
M  V30 10 C 0.866 -3.0 0.0 0
M  V30 11 C 2.598 -3.0 0.0 0
M  V30 12 O -0.866 1.0 0.0 0
M  V30 13 C -1.732 -0.4999 0.0 0 CFG=1
M  V30 14 C -0.866 -1.9999 0.0 0 CFG=1
M  V30 15 O 0.0 -3.5 0.0 0
M  V30 16 C 1.732 -3.5 0.0 0
M  V30 17 O 3.4641 -3.5 0.0 0
M  V30 18 C -1.732 1.5 0.0 0
M  V30 19 C -2.598 0.0 0.0 0
M  V30 20 C -1.732 -1.4999 0.0 0 CFG=2
M  V30 21 C -0.866 -2.9999 0.0 0
M  V30 22 C 0.0 -4.5 0.0 0
M  V30 23 O 1.732 -4.5 0.0 0
M  V30 24 C 4.3301 -3.0 0.0 0
M  V30 25 O -3.4641 -0.4999 0.0 0
M  V30 26 O -2.598 1.0 0.0 0
M  V30 27 C -2.598 -1.9999 0.0 0
M  V30 28 N -1.732 -3.4999 0.0 0
M  V30 29 C 2.598 -5.0 0.0 0
M  V30 30 C -3.4641 1.5 0.0 0
M  V30 31 C -2.598 -2.9999 0.0 0 CFG=1
M  V30 32 C -1.732 -4.4999 0.0 0
M  V30 33 C -3.4641 -3.4999 0.0 0
M  V30 34 C -2.598 -5.0 0.0 0
M  V30 35 N -4.4151 -3.1909 0.0 0
M  V30 36 C -3.4641 -4.5 0.0 0
M  V30 37 C -5.0029 -3.9999 0.0 0
M  V30 38 C -4.4151 -4.809 0.0 0
M  V30 39 C -5.9974 -4.1045 0.0 0
M  V30 40 C -4.8218 -5.7225 0.0 0
M  V30 41 C -6.4042 -5.018 0.0 0
M  V30 42 C -5.8164 -5.827 0.0 0
M  V30 43 O -7.3987 -5.1226 0.0 0
M  V30 44 C -7.8054 -6.0361 0.0 0
M  V30 END ATOM
M  V30 BEGIN BOND
M  V30 1 2 1 2
M  V30 2 1 2 3
M  V30 3 1 2 4
M  V30 4 1 5 3 CFG=3
M  V30 5 2 4 6
M  V30 6 1 4 7
M  V30 7 1 8 5
M  V30 8 1 5 9
M  V30 9 1 6 10
M  V30 10 2 7 11
M  V30 11 1 8 12 CFG=1
M  V30 12 1 13 8
M  V30 13 1 14 9 CFG=3
M  V30 14 1 10 15
M  V30 15 2 10 16
M  V30 16 1 11 17
M  V30 17 1 12 18
M  V30 18 1 13 19 CFG=3
M  V30 19 1 20 13
M  V30 20 1 14 21
M  V30 21 1 15 22
M  V30 22 1 16 23
M  V30 23 1 17 24
M  V30 24 2 19 25
M  V30 25 1 19 26
M  V30 26 1 20 27 CFG=3
M  V30 27 1 21 28
M  V30 28 1 23 29
M  V30 29 1 26 30
M  V30 30 1 31 27
M  V30 31 1 28 32
M  V30 32 1 31 33
M  V30 33 1 32 34
M  V30 34 1 33 35
M  V30 35 2 33 36
M  V30 36 1 35 37
M  V30 37 1 36 38
M  V30 38 1 37 39
M  V30 39 1 38 40
M  V30 40 2 39 41
M  V30 41 2 40 42
M  V30 42 1 41 43
M  V30 43 1 43 44
M  V30 44 1 11 16
M  V30 45 1 14 20
M  V30 46 1 31 28 CFG=1
M  V30 47 1 34 36
M  V30 48 2 37 38
M  V30 49 1 41 42
M  V30 END BOND
M  V30 BEGIN COLLECTION
M  V30 MDLV30/STERAC1 ATOMS=(6 5 8 13 14 20 31)
M  V30 END COLLECTION
M  V30 END CTAB
M  END
>  <Molecule Name>


>  <status>
DISCONTINUED

>  <cas>
50-55-5

>  <name>
RESERPINE

>  <ID>
141

>  <Smiles>
CO[C@@H]([C@@H](C[C@H]1[C@@H]2C[C@H](c3c(CC4)c(ccc(OC)c5)c5[nH]3)N4C1)OC(c(cc1OC)cc(OC)c1OC)=O)[C@H]2C(OC)=O

$$$$

Actelion Java MolfileCreator 2.0

  0  0  0  0  0  0              0 V3000
M  V30 BEGIN CTAB
M  V30 COUNTS 21 23 0 0 0
M  V30 BEGIN ATOM
M  V30 1 Cl 2.598 3.0 0.0 0
M  V30 2 C 3.4641 2.5 0.0 0
M  V30 3 C 3.4641 1.5 0.0 0
M  V30 4 C 4.3301 3.0 0.0 0
M  V30 5 C 4.3301 1.0 0.0 0
M  V30 6 C 5.1961 2.4999 0.0 0
M  V30 7 N 4.3301 0.0 0.0 0
M  V30 8 C 5.1961 1.4999 0.0 0
M  V30 9 C 5.1961 -0.5 0.0 0
M  V30 10 C 3.4641 -0.5 0.0 0
M  V30 11 S 6.0621 0.9999 0.0 0
M  V30 12 C 6.0621 0.0 0.0 0
M  V30 13 C 5.1961 -1.5 0.0 0
M  V30 14 C 2.598 0.0 0.0 0
M  V30 15 C 6.9282 -0.5 0.0 0
M  V30 16 C 6.0621 -2.0 0.0 0
M  V30 17 C 1.732 -0.5 0.0 0
M  V30 18 C 6.9282 -1.5 0.0 0
M  V30 19 N 0.866 0.0 0.0 0
M  V30 20 C 0.866 1.0 0.0 0
M  V30 21 C 0.0 -0.5 0.0 0
M  V30 END ATOM
M  V30 BEGIN BOND
M  V30 1 1 1 2
M  V30 2 2 2 3
M  V30 3 1 2 4
M  V30 4 1 3 5
M  V30 5 2 4 6
M  V30 6 1 5 7
M  V30 7 2 5 8
M  V30 8 1 7 9
M  V30 9 1 7 10
M  V30 10 1 8 11
M  V30 11 2 9 12
M  V30 12 1 9 13
M  V30 13 1 10 14
M  V30 14 1 12 15
M  V30 15 2 13 16
M  V30 16 1 14 17
M  V30 17 2 15 18
M  V30 18 1 17 19
M  V30 19 1 19 20
M  V30 20 1 19 21
M  V30 21 1 6 8
M  V30 22 1 11 12
M  V30 23 1 16 18
M  V30 END BOND
M  V30 END CTAB
M  END
>  <Molecule Name>


>  <status>
-

>  <cas>
50-53-3

>  <name>
CHLORPROMAZINE

>  <ID>
142

>  <Smiles>
CN(C)CCCN1c(cc(cc2)Cl)c2Sc2c1cccc2

$$$$

Actelion Java MolfileCreator 2.0

  0  0  0  0  0  0              0 V3000
M  V30 BEGIN CTAB
M  V30 COUNTS 21 24 0 0 0
M  V30 BEGIN ATOM
M  V30 1 O 1.4931 5.9671 0.0 0
M  V30 2 C 1.3886 4.9726 0.0 0
M  V30 3 C 2.1976 4.3848 0.0 0
M  V30 4 C 0.4751 4.5658 0.0 0
M  V30 5 C 2.0931 3.3903 0.0 0
M  V30 6 C 0.3705 3.5713 0.0 0
M  V30 7 C 1.1796 2.9835 0.0 0 CFG=1
M  V30 8 C 2.9021 2.8025 0.0 0
M  V30 9 C 1.075 1.989 0.0 0 CFG=1
M  V30 10 C 0.266 2.5768 0.0 0
M  V30 11 C 2.7976 1.8079 0.0 0
M  V30 12 C 1.884 1.4012 0.0 0 CFG=2
M  V30 13 C 0.1615 1.5823 0.0 0
M  V30 14 C 1.7795 0.4067 0.0 0 CFG=2
M  V30 15 C 0.057 0.5877 0.0 0
M  V30 16 C 0.866 0.0 0.0 0 CFG=1
M  V30 17 C 2.4487 -0.3364 0.0 0
M  V30 18 C 0.9705 -0.9945 0.0 0 CFG=1
M  V30 19 C 0.0 -0.5 0.0 0
M  V30 20 C 1.9487 -1.2024 0.0 0
M  V30 21 O 0.2274 -1.6636 0.0 0
M  V30 END ATOM
M  V30 BEGIN BOND
M  V30 1 2 1 2
M  V30 2 1 2 3
M  V30 3 1 2 4
M  V30 4 2 3 5
M  V30 5 1 4 6
M  V30 6 1 7 5
M  V30 7 1 5 8
M  V30 8 1 9 7
M  V30 9 1 7 10 CFG=1
M  V30 10 1 8 11
M  V30 11 1 12 9
M  V30 12 1 9 13 CFG=1
M  V30 13 1 14 12
M  V30 14 1 13 15
M  V30 15 1 16 14
M  V30 16 1 14 17 CFG=1
M  V30 17 1 18 16
M  V30 18 1 16 19 CFG=1
M  V30 19 1 17 20
M  V30 20 1 18 21 CFG=1
M  V30 21 1 6 7
M  V30 22 1 12 11 CFG=3
M  V30 23 1 15 16
M  V30 24 1 18 20
M  V30 END BOND
M  V30 BEGIN COLLECTION
M  V30 MDLV30/STERAC1 ATOMS=(6 7 9 12 14 16 18)
M  V30 END COLLECTION
M  V30 END CTAB
M  END
>  <Molecule Name>


>  <status>
-

>  <cas>
58-22-0

>  <name>
TESTOSTERONE

>  <ID>
143

>  <Smiles>
C[C@@](CC1)([C@H](CC2)[C@@H](CC3)[C@@H]1[C@](C)(CC1)C3=CC1=O)[C@@H]2O

$$$$

Actelion Java MolfileCreator 2.0

  0  0  0  0  0  0              0 V3000
M  V30 BEGIN CTAB
M  V30 COUNTS 25 28 0 0 0
M  V30 BEGIN ATOM
M  V30 1 O 15.3697 1.7313 0.0 0
M  V30 2 C 13.9025 1.4194 0.0 0
M  V30 3 C 13.439 -0.0071 0.0 0
M  V30 4 C 12.8988 2.5341 0.0 0
M  V30 5 C 11.9718 -0.319 0.0 0
M  V30 6 C 11.4316 2.2222 0.0 0
M  V30 7 C 10.9681 0.7957 0.0 0 CFG=1
M  V30 8 C 11.5083 -1.7455 0.0 0
M  V30 9 C 9.5009 0.4838 0.0 0 CFG=1
M  V30 10 C 9.9644 1.9104 0.0 0
M  V30 11 C 10.041 -2.0574 0.0 0
M  V30 12 C 9.0373 -0.9427 0.0 0 CFG=2
M  V30 13 C 8.4972 1.5985 0.0 0
M  V30 14 C 7.5701 -1.2546 0.0 0 CFG=2
M  V30 15 C 7.0299 1.2866 0.0 0
M  V30 16 C 6.5664 -0.1398 0.0 0 CFG=1
M  V30 17 C 6.8201 -2.5536 0.0 0
M  V30 18 C 5.1961 -0.75 0.0 0 CFG=1
M  V30 19 C 5.4517 0.8638 0.0 0
M  V30 20 C 5.3529 -2.2417 0.0 0
M  V30 21 O 3.8971 0.0 0.0 0
M  V30 22 C 2.598 -0.75 0.0 0
M  V30 23 O 2.598 -2.25 0.0 0
M  V30 24 C 1.299 0.0 0.0 0
M  V30 25 C 0.0 -0.75 0.0 0
M  V30 END ATOM
M  V30 BEGIN BOND
M  V30 1 2 1 2
M  V30 2 1 2 3
M  V30 3 1 2 4
M  V30 4 2 3 5
M  V30 5 1 4 6
M  V30 6 1 7 5
M  V30 7 1 5 8
M  V30 8 1 9 7
M  V30 9 1 7 10 CFG=1
M  V30 10 1 8 11
M  V30 11 1 12 9
M  V30 12 1 9 13 CFG=1
M  V30 13 1 14 12
M  V30 14 1 13 15
M  V30 15 1 16 14
M  V30 16 1 14 17 CFG=1
M  V30 17 1 18 16
M  V30 18 1 16 19 CFG=1
M  V30 19 1 17 20
M  V30 20 1 18 21 CFG=1
M  V30 21 1 21 22
M  V30 22 2 22 23
M  V30 23 1 22 24
M  V30 24 1 24 25
M  V30 25 1 6 7
M  V30 26 1 12 11 CFG=3
M  V30 27 1 15 16
M  V30 28 1 18 20
M  V30 END BOND
M  V30 BEGIN COLLECTION
M  V30 MDLV30/STERAC1 ATOMS=(6 7 9 12 14 16 18)
M  V30 END COLLECTION
M  V30 END CTAB
M  END
>  <Molecule Name>


>  <status>
DISCONTINUED

>  <cas>
57-85-2

>  <name>
TESTOSTERONE PROPIONATE

>  <ID>
144

>  <Smiles>
CCC(O[C@H](CC1)[C@](C)(CC2)[C@H]1[C@@H](CC1)[C@@H]2[C@](C)(CC2)C1=CC2=O)=O

$$$$

Actelion Java MolfileCreator 2.0

  0  0  0  0  0  0              0 V3000
M  V30 BEGIN CTAB
M  V30 COUNTS 21 22 0 0 0
M  V30 BEGIN ATOM
M  V30 1 O 1.732 1.4999 0.0 0
M  V30 2 C 2.598 1.0 0.0 0
M  V30 3 C 2.598 0.0 0.0 0
M  V30 4 C 3.4641 1.4999 0.0 0
M  V30 5 C 3.4641 -0.5 0.0 0
M  V30 6 C 1.732 -0.5 0.0 0
M  V30 7 C 4.3301 1.0 0.0 0
M  V30 8 C 4.3301 0.0 0.0 0
M  V30 9 C 0.866 0.0 0.0 0
M  V30 10 C 5.1961 1.5 0.0 0
M  V30 11 C 0.0 -0.5 0.0 0
M  V30 12 N 6.0621 1.0 0.0 0 CHG=1
M  V30 13 N 5.1961 2.5 0.0 0
M  V30 14 C -0.866 0.0 0.0 0
M  V30 15 C 0.0 -1.4999 0.0 0
M  V30 16 C -1.732 -0.4999 0.0 0
M  V30 17 C -0.866 -1.9999 0.0 0
M  V30 18 C -1.732 -1.4999 0.0 0
M  V30 19 C -2.598 -1.9999 0.0 0
M  V30 20 N -3.4641 -1.4999 0.0 0
M  V30 21 N -2.598 -2.9999 0.0 0
M  V30 END ATOM
M  V30 BEGIN BOND
M  V30 1 2 1 2
M  V30 2 1 2 3
M  V30 3 1 2 4
M  V30 4 1 3 5
M  V30 5 2 3 6
M  V30 6 2 4 7
M  V30 7 2 5 8
M  V30 8 1 6 9
M  V30 9 1 7 10
M  V30 10 2 9 11
M  V30 11 2 10 12
M  V30 12 1 10 13
M  V30 13 1 11 14
M  V30 14 1 11 15
M  V30 15 2 14 16
M  V30 16 2 15 17
M  V30 17 1 16 18
M  V30 18 2 18 19
M  V30 19 1 19 20
M  V30 20 1 19 21
M  V30 21 1 7 8
M  V30 22 1 17 18
M  V30 END BOND
M  V30 END CTAB
M  END
>  <Molecule Name>


>  <status>
DISCONTINUED

>  <cas>
495-99-8

>  <name>
HYDROXYSTILBAMIDINE

>  <ID>
145

>  <Smiles>
NC(C(C=C/C1=C/C=C(C=C2)C=CC2=C(N)N)=CC1=O)=[NH2+]

$$$$

Actelion Java MolfileCreator 2.0

  0  0  0  0  0  0              0 V3000
M  V30 BEGIN CTAB
M  V30 COUNTS 16 17 0 0 0
M  V30 BEGIN ATOM
M  V30 1 O -1.3097 1.5123 0.0 0
M  V30 2 C -1.3097 0.0 0.0 0
M  V30 3 N -2.6194 -0.7561 0.0 0
M  V30 4 C 0.0 -0.7561 0.0 0
M  V30 5 C -2.6194 -2.2685 0.0 0
M  V30 6 C 0.0 -2.2685 0.0 0
M  V30 7 C 1.3097 -1.5123 0.0 0
M  V30 8 C 1.3097 0.0 0.0 0
M  V30 9 N -1.3097 -3.0247 0.0 0
M  V30 10 O 1.2543 -3.1584 0.0 0
M  V30 11 C 1.4876 -2.7738 0.0 0
M  V30 12 C 2.6194 -0.7561 0.0 0
M  V30 13 C 1.3097 1.5123 0.0 0
M  V30 14 C 2.6194 -3.7809 0.0 0
M  V30 15 C 3.9292 -1.5123 0.0 0
M  V30 16 C 3.9292 -3.0247 0.0 0
M  V30 END ATOM
M  V30 BEGIN BOND
M  V30 1 2 1 2
M  V30 2 1 2 3
M  V30 3 1 2 4
M  V30 4 1 3 5
M  V30 5 1 4 6
M  V30 6 1 4 7
M  V30 7 1 4 8
M  V30 8 1 5 9
M  V30 9 2 6 10
M  V30 10 2 7 11
M  V30 11 1 7 12
M  V30 12 1 8 13
M  V30 13 1 11 14
M  V30 14 2 12 15
M  V30 15 2 14 16
M  V30 16 1 6 9
M  V30 17 1 15 16
M  V30 END BOND
M  V30 END CTAB
M  END
>  <Molecule Name>


>  <status>
-

>  <cas>
125-33-7

>  <name>
PRIMIDONE

>  <ID>
146

>  <Smiles>
CCC(c1ccccc1)(C(NCN1)=O)C1=O

$$$$

Actelion Java MolfileCreator 2.0

  0  0  0  0  0  0              0 V3000
M  V30 BEGIN CTAB
M  V30 COUNTS 23 25 0 0 0
M  V30 BEGIN ATOM
M  V30 1 O 2.598 -1.9999 0.0 0
M  V30 2 C 3.4641 -1.4999 0.0 0
M  V30 3 C 4.3301 -1.9999 0.0 0
M  V30 4 C 3.4641 -0.5 0.0 0
M  V30 5 C 5.1961 -1.4999 0.0 0
M  V30 6 C 4.3301 -2.9999 0.0 0
M  V30 7 C 4.3301 0.0 0.0 0
M  V30 8 C 2.598 0.0 0.0 0 CFG=2
M  V30 9 O 5.1961 -0.4999 0.0 0
M  V30 10 C 6.0621 -1.9999 0.0 0
M  V30 11 C 5.1961 -3.4999 0.0 0
M  V30 12 O 4.3301 1.0 0.0 0
M  V30 13 C 2.598 1.0 0.0 0
M  V30 14 C 1.732 -0.5 0.0 0
M  V30 15 C 6.0621 -2.9999 0.0 0
M  V30 16 C 3.4641 1.5 0.0 0
M  V30 17 C 1.732 1.4999 0.0 0
M  V30 18 C 0.866 0.0 0.0 0
M  V30 19 C 3.4641 2.5 0.0 0
M  V30 20 C 1.732 2.5 0.0 0
M  V30 21 O 0.866 1.0 0.0 0
M  V30 22 C 0.0 -0.5 0.0 0
M  V30 23 C 2.598 3.0 0.0 0
M  V30 END ATOM
M  V30 BEGIN BOND
M  V30 1 2 1 2
M  V30 2 1 2 3
M  V30 3 1 2 4
M  V30 4 2 3 5
M  V30 5 1 3 6
M  V30 6 2 4 7
M  V30 7 1 8 4
M  V30 8 1 5 9
M  V30 9 1 5 10
M  V30 10 2 6 11
M  V30 11 1 7 12
M  V30 12 1 8 13
M  V30 13 1 8 14 CFG=1
M  V30 14 2 10 15
M  V30 15 2 13 16
M  V30 16 1 13 17
M  V30 17 1 14 18
M  V30 18 1 16 19
M  V30 19 2 17 20
M  V30 20 2 18 21
M  V30 21 1 18 22
M  V30 22 2 19 23
M  V30 23 1 7 9
M  V30 24 1 11 15
M  V30 25 1 20 23
M  V30 END BOND
M  V30 BEGIN COLLECTION
M  V30 MDLV30/STERAC1 ATOMS=(1 8)
M  V30 END COLLECTION
M  V30 END CTAB
M  END
>  <Molecule Name>


>  <status>
-

>  <cas>
81-81-2

>  <name>
WARFARIN

>  <ID>
147

>  <Smiles>
CC(CC(c1ccccc1)C1=C(O)Oc(cccc2)c2C1=O)=O

$$$$

Actelion Java MolfileCreator 2.0

  0  0  0  0  0  0              0 V3000
M  V30 BEGIN CTAB
M  V30 COUNTS 23 26 0 0 0
M  V30 BEGIN ATOM
M  V30 1 O 12.7717 1.7313 0.0 0
M  V30 2 C 11.3045 1.4194 0.0 0
M  V30 3 C 10.8409 -0.0071 0.0 0
M  V30 4 C 10.3008 2.5341 0.0 0
M  V30 5 C 9.3737 -0.319 0.0 0
M  V30 6 C 8.8335 2.2222 0.0 0
M  V30 7 C 8.37 0.7957 0.0 0 CFG=1
M  V30 8 C 8.9102 -1.7455 0.0 0
M  V30 9 C 6.9028 0.4838 0.0 0 CFG=1
M  V30 10 C 7.3663 1.9104 0.0 0
M  V30 11 C 7.443 -2.0574 0.0 0
M  V30 12 C 6.4393 -0.9427 0.0 0 CFG=2
M  V30 13 C 5.8991 1.5985 0.0 0
M  V30 14 C 4.972 -1.2546 0.0 0 CFG=2
M  V30 15 C 4.4319 1.2866 0.0 0
M  V30 16 C 3.9683 -0.1398 0.0 0 CFG=1
M  V30 17 C 4.222 -2.5536 0.0 0
M  V30 18 C 2.598 -0.75 0.0 0 CFG=1
M  V30 19 C 2.8536 0.8638 0.0 0
M  V30 20 C 2.7548 -2.2417 0.0 0
M  V30 21 C 1.299 0.0 0.0 0
M  V30 22 O 1.299 1.5 0.0 0
M  V30 23 C 0.0 -0.75 0.0 0
M  V30 END ATOM
M  V30 BEGIN BOND
M  V30 1 2 1 2
M  V30 2 1 2 3
M  V30 3 1 2 4
M  V30 4 2 3 5
M  V30 5 1 4 6
M  V30 6 1 7 5
M  V30 7 1 5 8
M  V30 8 1 9 7
M  V30 9 1 7 10 CFG=1
M  V30 10 1 8 11
M  V30 11 1 12 9
M  V30 12 1 9 13 CFG=1
M  V30 13 1 14 12
M  V30 14 1 13 15
M  V30 15 1 16 14
M  V30 16 1 14 17 CFG=1
M  V30 17 1 18 16
M  V30 18 1 16 19 CFG=1
M  V30 19 1 17 20
M  V30 20 1 18 21 CFG=1
M  V30 21 2 21 22
M  V30 22 1 21 23
M  V30 23 1 6 7
M  V30 24 1 12 11 CFG=3
M  V30 25 1 15 16
M  V30 26 1 18 20
M  V30 END BOND
M  V30 BEGIN COLLECTION
M  V30 MDLV30/STERAC1 ATOMS=(6 7 9 12 14 16 18)
M  V30 END COLLECTION
M  V30 END CTAB
M  END
>  <Molecule Name>


>  <status>
-

>  <cas>
57-83-0

>  <name>
PROGESTERONE

>  <ID>
148

>  <Smiles>
C[C@@](CC1)([C@H](CC2)[C@@H](CC3)[C@@H]1[C@](C)(CC1)C3=CC1=O)[C@@H]2C(C)=O

$$$$

Actelion Java MolfileCreator 2.0

  0  0  0  0  0  0              0 V3000
M  V30 BEGIN CTAB
M  V30 COUNTS 13 14 0 0 0
M  V30 BEGIN ATOM
M  V30 1 O 0.866 0.0 0.0 0
M  V30 2 C 0.0 -0.5 0.0 0
M  V30 3 N -0.866 0.0 0.0 0
M  V30 4 N 0.0 -1.4999 0.0 0
M  V30 5 C -1.732 -0.4999 0.0 0
M  V30 6 C -0.866 1.0 0.0 0
M  V30 7 C -0.866 -1.9999 0.0 0
M  V30 8 C 0.866 -1.9999 0.0 0
M  V30 9 O -2.598 0.0 0.0 0
M  V30 10 C -1.732 -1.4999 0.0 0
M  V30 11 N -1.0739 -2.9781 0.0 0
M  V30 12 N -2.4751 -2.1691 0.0 0 CHG=-1
M  V30 13 C -2.0684 -3.0826 0.0 0
M  V30 END ATOM
M  V30 BEGIN BOND
M  V30 1 2 1 2
M  V30 2 1 2 3
M  V30 3 1 2 4
M  V30 4 1 3 5
M  V30 5 1 3 6
M  V30 6 1 4 7
M  V30 7 1 4 8
M  V30 8 2 5 9
M  V30 9 1 5 10
M  V30 10 1 7 11
M  V30 11 1 10 12
M  V30 12 2 11 13
M  V30 13 2 7 10
M  V30 14 1 12 13
M  V30 END BOND
M  V30 END CTAB
M  END
>  <Molecule Name>


>  <status>
DISCONTINUED

>  <cas>
46155-92-4

>  <name>
OXTRIPHYLLINE

>  <ID>
149

>  <Smiles>
CN(c1c(C(N2C)=O)[n-]cn1)C2=O

$$$$

Actelion Java MolfileCreator 2.0

  0  0  0  0  0  0              0 V3000
M  V30 BEGIN CTAB
M  V30 COUNTS 66 74 0 0 0
M  V30 BEGIN ATOM
M  V30 1 O 10.3061 -4.037 0.0 0
M  V30 2 C 9.3926 -3.6303 0.0 0
M  V30 3 O 9.1847 -2.6522 0.0 0
M  V30 4 C 8.5266 -4.1303 0.0 0
M  V30 5 C 8.1902 -2.5476 0.0 0
M  V30 6 C 7.7834 -3.4612 0.0 0
M  V30 7 C 6.8053 -3.6691 0.0 0 CFG=2
M  V30 8 C 6.0621 -2.9999 0.0 0 CFG=2
M  V30 9 C 6.3985 -4.5826 0.0 0
M  V30 10 C 5.1961 -3.4999 0.0 0 CFG=1
M  V30 11 C 6.0621 -1.9999 0.0 0 CFG=2
M  V30 12 C 6.9757 -2.5932 0.0 0
M  V30 13 C 5.404 -4.4781 0.0 0
M  V30 14 O 4.3871 -4.0877 0.0 0
M  V30 15 C 4.3301 -2.9999 0.0 0 CFG=1
M  V30 16 O 6.9282 -1.4999 0.0 0
M  V30 17 C 5.1961 -1.4999 0.0 0
M  V30 18 C 4.3301 -1.9999 0.0 0 CFG=2
M  V30 19 C 3.4641 -3.4999 0.0 0
M  V30 20 C 3.4641 -1.4999 0.0 0 CFG=2
M  V30 21 C 2.598 -2.9999 0.0 0
M  V30 22 C 2.598 -1.9999 0.0 0 CFG=2
M  V30 23 C 3.4641 -0.4999 0.0 0
M  V30 24 C 4.3301 -0.9999 0.0 0
M  V30 25 C 1.732 -1.4999 0.0 0
M  V30 26 C 2.598 0.0 0.0 0
M  V30 27 C 1.732 -0.5 0.0 0 CFG=2
M  V30 28 O 0.866 0.0 0.0 0
M  V30 29 C 0.0 -0.5 0.0 0 CFG=2
M  V30 30 O -0.866 0.0 0.0 0
M  V30 31 C 0.0 -1.4999 0.0 0
M  V30 32 C -1.732 -0.4999 0.0 0 CFG=1
M  V30 33 C -0.866 -1.9999 0.0 0 CFG=1
M  V30 34 C -1.732 -1.4999 0.0 0 CFG=2
M  V30 35 C -2.598 0.0 0.0 0
M  V30 36 O -0.866 -2.9999 0.0 0
M  V30 37 O -2.598 -1.9999 0.0 0
M  V30 38 C -2.598 -2.9999 0.0 0 CFG=2
M  V30 39 O -3.4641 -3.4999 0.0 0
M  V30 40 C -1.732 -3.4999 0.0 0
M  V30 41 C -3.4641 -4.4999 0.0 0 CFG=1
M  V30 42 C -1.732 -4.4999 0.0 0 CFG=1
M  V30 43 C -2.598 -4.9999 0.0 0 CFG=2
M  V30 44 C -4.3301 -4.9999 0.0 0
M  V30 45 O -0.866 -4.9999 0.0 0
M  V30 46 O -2.598 -5.9999 0.0 0
M  V30 47 C -1.732 -6.4999 0.0 0 CFG=2
M  V30 48 O -1.732 -7.4999 0.0 0
M  V30 49 C -0.866 -6.0 0.0 0
M  V30 50 C -0.866 -8.0 0.0 0 CFG=1
M  V30 51 C 0.0 -6.5 0.0 0 CFG=1
M  V30 52 C 0.0 -7.5 0.0 0 CFG=2
M  V30 53 C -0.866 -9.0 0.0 0
M  V30 54 O 0.866 -6.0 0.0 0
M  V30 55 O 0.866 -8.0 0.0 0
M  V30 56 C 1.732 -7.5 0.0 0 CFG=2
M  V30 57 O 1.732 -6.5 0.0 0
M  V30 58 C 2.598 -8.0 0.0 0 CFG=2
M  V30 59 C 2.598 -6.0 0.0 0 CFG=1
M  V30 60 O 2.598 -9.0 0.0 0
M  V30 61 C 3.4641 -7.5 0.0 0 CFG=2
M  V30 62 C 3.4641 -6.5 0.0 0 CFG=2
M  V30 63 C 2.598 -5.0 0.0 0
M  V30 64 O 4.3301 -8.0 0.0 0
M  V30 65 O 4.3301 -6.0 0.0 0
M  V30 66 O 3.4641 -4.5 0.0 0
M  V30 END ATOM
M  V30 BEGIN BOND
M  V30 1 2 1 2
M  V30 2 1 2 3
M  V30 3 1 2 4
M  V30 4 1 3 5
M  V30 5 2 4 6
M  V30 6 1 7 6 CFG=1
M  V30 7 1 8 7
M  V30 8 1 7 9
M  V30 9 1 10 8
M  V30 10 1 11 8
M  V30 11 1 8 12 CFG=1
M  V30 12 1 9 13
M  V30 13 1 10 14 CFG=1
M  V30 14 1 15 10
M  V30 15 1 11 16 CFG=1
M  V30 16 1 11 17
M  V30 17 1 18 15
M  V30 18 1 15 19 CFG=3
M  V30 19 1 20 18
M  V30 20 1 19 21
M  V30 21 1 22 20
M  V30 22 1 20 23
M  V30 23 1 20 24 CFG=1
M  V30 24 1 22 25 CFG=3
M  V30 25 1 23 26
M  V30 26 1 27 25
M  V30 27 1 27 28 CFG=1
M  V30 28 1 29 28 CFG=1
M  V30 29 1 29 30
M  V30 30 1 29 31
M  V30 31 1 32 30
M  V30 32 1 33 31
M  V30 33 1 34 32
M  V30 34 1 32 35 CFG=1
M  V30 35 1 33 36 CFG=3
M  V30 36 1 34 37 CFG=3
M  V30 37 1 38 37 CFG=1
M  V30 38 1 38 39
M  V30 39 1 38 40
M  V30 40 1 41 39
M  V30 41 1 42 40
M  V30 42 1 43 41
M  V30 43 1 41 44 CFG=1
M  V30 44 1 42 45 CFG=3
M  V30 45 1 43 46 CFG=3
M  V30 46 1 47 46 CFG=1
M  V30 47 1 47 48
M  V30 48 1 47 49
M  V30 49 1 50 48
M  V30 50 1 51 49
M  V30 51 1 52 50
M  V30 52 1 50 53 CFG=1
M  V30 53 1 51 54 CFG=3
M  V30 54 1 52 55 CFG=3
M  V30 55 1 56 55 CFG=3
M  V30 56 1 56 57
M  V30 57 1 58 56
M  V30 58 1 59 57
M  V30 59 1 58 60 CFG=1
M  V30 60 1 61 58
M  V30 61 1 62 59
M  V30 62 1 59 63 CFG=3
M  V30 63 1 61 64 CFG=3
M  V30 64 1 62 65 CFG=1
M  V30 65 1 63 66
M  V30 66 1 5 6
M  V30 67 1 10 13
M  V30 68 1 18 17 CFG=1
M  V30 69 1 21 22
M  V30 70 1 26 27
M  V30 71 1 33 34
M  V30 72 1 42 43
M  V30 73 1 51 52
M  V30 74 1 61 62
M  V30 END BOND
M  V30 BEGIN COLLECTION
M  V30 MDLV30/STERAC1 ATOMS=(26 7 8 10 11 15 18 20 22 27 29 32 33 34 38 41 42 43 47 50 51 52 56 58 59 61 62)
M  V30 END COLLECTION
M  V30 END CTAB
M  END
>  <Molecule Name>


>  <status>
DISCONTINUED

>  <cas>
17598-65-1

>  <name>
DESLANOSIDE

>  <ID>
150

>  <Smiles>
C[C@H]([C@H]([C@H](C1)O)O[C@@H](C[C@@H]2O)O[C@H](C)[C@H]2O[C@@H](C[C@@H]2O)O[C@H](C)[C@H]2O[C@@H]([C@@H]([C@H]2O)O)O[C@H](CO)[C@H]2O)O[C@H]1O[C@@H](CC1)C[C@@H](CC2)[C@@]1(C)[C@@H](C[C@H]([C@]1(C)[C@H](CC3)C(CO4)=CC4=O)O)[C@@H]2[C@]13O

$$$$

Actelion Java MolfileCreator 2.0

  0  0  0  0  0  0              0 V3000
M  V30 BEGIN CTAB
M  V30 COUNTS 23 24 0 0 0
M  V30 BEGIN ATOM
M  V30 1 O 5.1961 -0.5 0.0 0
M  V30 2 C 4.3301 0.0 0.0 0 CFG=2
M  V30 3 C 4.3301 0.9999 0.0 0
M  V30 4 C 4.3301 -1.0 0.0 0
M  V30 5 C 3.4641 -0.5 0.0 0
M  V30 6 C 5.1961 1.4999 0.0 0
M  V30 7 C 3.4641 1.5 0.0 0
M  V30 8 C 3.4641 -1.5 0.0 0
M  V30 9 C 5.1961 -1.4999 0.0 0
M  V30 10 C 2.598 0.0 0.0 0
M  V30 11 C 5.1961 2.4999 0.0 0
M  V30 12 C 3.4641 2.5 0.0 0
M  V30 13 C 3.4641 -2.5 0.0 0
M  V30 14 C 5.1961 -2.4999 0.0 0
M  V30 15 N 1.732 -0.5 0.0 0 CHG=1
M  V30 16 C 4.3301 2.9999 0.0 0
M  V30 17 C 4.3301 -3.0 0.0 0
M  V30 18 C 1.732 -1.5 0.0 0
M  V30 19 C 2.598 -0.9999 0.0 0
M  V30 20 C 0.866 0.0 0.0 0
M  V30 21 C 0.866 -1.9999 0.0 0
M  V30 22 C 2.598 -1.9999 0.0 0
M  V30 23 C 0.0 -0.5 0.0 0
M  V30 END ATOM
M  V30 BEGIN BOND
M  V30 1 1 2 1
M  V30 2 1 2 3
M  V30 3 1 2 4 CFG=1
M  V30 4 1 2 5
M  V30 5 2 3 6
M  V30 6 1 3 7
M  V30 7 1 4 8
M  V30 8 1 4 9
M  V30 9 1 5 10
M  V30 10 1 6 11
M  V30 11 2 7 12
M  V30 12 1 8 13
M  V30 13 1 9 14
M  V30 14 1 10 15
M  V30 15 2 11 16
M  V30 16 1 13 17
M  V30 17 1 15 18
M  V30 18 1 15 19
M  V30 19 1 15 20
M  V30 20 1 18 21
M  V30 21 1 19 22
M  V30 22 1 20 23
M  V30 23 1 12 16
M  V30 24 1 14 17
M  V30 END BOND
M  V30 BEGIN COLLECTION
M  V30 MDLV30/STERAC1 ATOMS=(1 2)
M  V30 END COLLECTION
M  V30 END CTAB
M  END
>  <Molecule Name>


>  <status>
DISCONTINUED

>  <cas>
4310-35-4

>  <name>
TRIDIHEXETHYL

>  <ID>
151

>  <Smiles>
CC[N+](CC)(CC)CCC(C1CCCCC1)(c1ccccc1)O

$$$$

Actelion Java MolfileCreator 2.0

  0  0  0  0  0  0              0 V3000
M  V30 BEGIN CTAB
M  V30 COUNTS 55 62 0 0 0
M  V30 BEGIN ATOM
M  V30 1 O 10.3061 -4.037 0.0 0
M  V30 2 C 9.3926 -3.6303 0.0 0
M  V30 3 O 9.1847 -2.6522 0.0 0
M  V30 4 C 8.5266 -4.1303 0.0 0
M  V30 5 C 8.1902 -2.5476 0.0 0
M  V30 6 C 7.7834 -3.4612 0.0 0
M  V30 7 C 6.8053 -3.6691 0.0 0 CFG=2
M  V30 8 C 6.0621 -2.9999 0.0 0 CFG=2
M  V30 9 C 6.3985 -4.5826 0.0 0
M  V30 10 C 5.1961 -3.4999 0.0 0 CFG=1
M  V30 11 C 6.0621 -1.9999 0.0 0 CFG=2
M  V30 12 C 6.9757 -2.5932 0.0 0
M  V30 13 C 5.404 -4.4781 0.0 0
M  V30 14 O 4.3871 -4.0877 0.0 0
M  V30 15 C 4.3301 -2.9999 0.0 0 CFG=1
M  V30 16 O 6.9282 -1.4999 0.0 0
M  V30 17 C 5.1961 -1.4999 0.0 0
M  V30 18 C 4.3301 -1.9999 0.0 0 CFG=2
M  V30 19 C 3.4641 -3.4999 0.0 0
M  V30 20 C 3.4641 -1.4999 0.0 0 CFG=2
M  V30 21 C 2.598 -2.9999 0.0 0
M  V30 22 C 2.598 -1.9999 0.0 0 CFG=2
M  V30 23 C 3.4641 -0.4999 0.0 0
M  V30 24 C 4.3301 -0.9999 0.0 0
M  V30 25 C 1.732 -1.4999 0.0 0
M  V30 26 C 2.598 0.0 0.0 0
M  V30 27 C 1.732 -0.5 0.0 0 CFG=2
M  V30 28 O 0.866 0.0 0.0 0
M  V30 29 C 0.0 -0.5 0.0 0 CFG=2
M  V30 30 O -0.866 0.0 0.0 0
M  V30 31 C 0.0 -1.4999 0.0 0
M  V30 32 C -1.732 -0.4999 0.0 0 CFG=1
M  V30 33 C -0.866 -1.9999 0.0 0 CFG=1
M  V30 34 C -1.732 -1.4999 0.0 0 CFG=2
M  V30 35 C -2.598 0.0 0.0 0
M  V30 36 O -0.866 -2.9999 0.0 0
M  V30 37 O -2.598 -1.9999 0.0 0
M  V30 38 C -2.598 -2.9999 0.0 0 CFG=2
M  V30 39 O -3.4641 -3.4999 0.0 0
M  V30 40 C -1.732 -3.4999 0.0 0
M  V30 41 C -3.4641 -4.4999 0.0 0 CFG=1
M  V30 42 C -1.732 -4.4999 0.0 0 CFG=1
M  V30 43 C -2.598 -4.9999 0.0 0 CFG=2
M  V30 44 C -4.3301 -4.9999 0.0 0
M  V30 45 O -0.866 -4.9999 0.0 0
M  V30 46 O -2.598 -5.9999 0.0 0
M  V30 47 C -1.732 -6.4999 0.0 0 CFG=2
M  V30 48 O -1.732 -7.4999 0.0 0
M  V30 49 C -0.866 -6.0 0.0 0
M  V30 50 C -0.866 -8.0 0.0 0 CFG=1
M  V30 51 C 0.0 -6.5 0.0 0 CFG=1
M  V30 52 C 0.0 -7.5 0.0 0 CFG=2
M  V30 53 C -0.866 -9.0 0.0 0
M  V30 54 O 0.866 -6.0 0.0 0
M  V30 55 O 0.866 -8.0 0.0 0
M  V30 END ATOM
M  V30 BEGIN BOND
M  V30 1 2 1 2
M  V30 2 1 2 3
M  V30 3 1 2 4
M  V30 4 1 3 5
M  V30 5 2 4 6
M  V30 6 1 7 6 CFG=1
M  V30 7 1 8 7
M  V30 8 1 7 9
M  V30 9 1 10 8
M  V30 10 1 11 8
M  V30 11 1 8 12 CFG=1
M  V30 12 1 9 13
M  V30 13 1 10 14 CFG=1
M  V30 14 1 15 10
M  V30 15 1 11 16 CFG=1
M  V30 16 1 11 17
M  V30 17 1 18 15
M  V30 18 1 15 19 CFG=3
M  V30 19 1 20 18
M  V30 20 1 19 21
M  V30 21 1 22 20
M  V30 22 1 20 23
M  V30 23 1 20 24 CFG=1
M  V30 24 1 22 25 CFG=3
M  V30 25 1 23 26
M  V30 26 1 27 25
M  V30 27 1 27 28 CFG=1
M  V30 28 1 29 28 CFG=1
M  V30 29 1 29 30
M  V30 30 1 29 31
M  V30 31 1 32 30
M  V30 32 1 33 31
M  V30 33 1 34 32
M  V30 34 1 32 35 CFG=1
M  V30 35 1 33 36 CFG=3
M  V30 36 1 34 37 CFG=3
M  V30 37 1 38 37 CFG=1
M  V30 38 1 38 39
M  V30 39 1 38 40
M  V30 40 1 41 39
M  V30 41 1 42 40
M  V30 42 1 43 41
M  V30 43 1 41 44 CFG=1
M  V30 44 1 42 45 CFG=3
M  V30 45 1 43 46 CFG=3
M  V30 46 1 47 46 CFG=1
M  V30 47 1 47 48
M  V30 48 1 47 49
M  V30 49 1 50 48
M  V30 50 1 51 49
M  V30 51 1 52 50
M  V30 52 1 50 53 CFG=1
M  V30 53 1 51 54 CFG=3
M  V30 54 1 52 55 CFG=3
M  V30 55 1 5 6
M  V30 56 1 10 13
M  V30 57 1 18 17 CFG=1
M  V30 58 1 21 22
M  V30 59 1 26 27
M  V30 60 1 33 34
M  V30 61 1 42 43
M  V30 62 1 51 52
M  V30 END BOND
M  V30 BEGIN COLLECTION
M  V30 MDLV30/STERAC1 ATOMS=(21 7 8 10 11 15 18 20 22 27 29 32 33 34 38 41 42 43 47 50 51 52)
M  V30 END COLLECTION
M  V30 END CTAB
M  END
>  <Molecule Name>


>  <status>
-

>  <cas>
20830-75-5

>  <name>
DIGOXIN

>  <ID>
152

>  <Smiles>
C[C@H]([C@H]([C@H](C1)O)O)O[C@H]1O[C@H]([C@@H](C)O[C@H](C1)O[C@H]([C@@H](C)O[C@H](C2)O[C@@H](CC3)C[C@@H](CC4)[C@@]3(C)[C@@H](C[C@H]([C@]3(C)[C@H](CC5)C(CO6)=CC6=O)O)[C@@H]4[C@]35O)[C@H]2O)[C@H]1O

$$$$

Actelion Java MolfileCreator 2.0

  0  0  0  0  0  0              0 V3000
M  V30 BEGIN CTAB
M  V30 COUNTS 8 8 0 0 0
M  V30 BEGIN ATOM
M  V30 1 N 3.6807 1.2024 0.0 0
M  V30 2 N 2.7026 0.9945 0.0 0
M  V30 3 C 4.1807 0.3364 0.0 0
M  V30 4 C 2.598 0.0 0.0 0
M  V30 5 C 3.5116 -0.4067 0.0 0
M  V30 6 C 1.732 -0.5 0.0 0
M  V30 7 C 0.866 0.0 0.0 0
M  V30 8 N 0.0 -0.5 0.0 0
M  V30 END ATOM
M  V30 BEGIN BOND
M  V30 1 1 1 2
M  V30 2 2 1 3
M  V30 3 1 2 4
M  V30 4 1 3 5
M  V30 5 1 4 6
M  V30 6 1 6 7
M  V30 7 1 7 8
M  V30 8 2 4 5
M  V30 END BOND
M  V30 END CTAB
M  END
>  <Molecule Name>


>  <status>
DISCONTINUED

>  <cas>
105-20-4

>  <name>
BETAZOLE

>  <ID>
153

>  <Smiles>
NCCc1ccn[nH]1

$$$$

Actelion Java MolfileCreator 2.0

  0  0  0  0  0  0              0 V3000
M  V30 BEGIN CTAB
M  V30 COUNTS 17 18 0 0 0
M  V30 BEGIN ATOM
M  V30 1 N 5.1961 -0.5 0.0 0 CHG=1
M  V30 2 C 5.3006 -1.4945 0.0 0
M  V30 3 C 6.1096 -0.0932 0.0 0
M  V30 4 C 4.3301 0.0 0.0 0
M  V30 5 C 5.2484 0.4986 0.0 0
M  V30 6 C 6.2788 -1.7024 0.0 0
M  V30 7 C 6.7788 -0.8364 0.0 0
M  V30 8 C 3.4641 -0.5 0.0 0
M  V30 9 C 2.598 0.0 0.0 0
M  V30 10 C 1.732 -0.5 0.0 0
M  V30 11 C 0.866 0.0 0.0 0
M  V30 12 N 0.0 -0.5 0.0 0 CHG=1
M  V30 13 C -0.9135 -0.0932 0.0 0
M  V30 14 C -0.1045 -1.4945 0.0 0
M  V30 15 C 0.8386 -1.0446 0.0 0
M  V30 16 C -1.5826 -0.8364 0.0 0
M  V30 17 C -1.0826 -1.7024 0.0 0
M  V30 END ATOM
M  V30 BEGIN BOND
M  V30 1 1 1 2
M  V30 2 1 1 3
M  V30 3 1 1 4
M  V30 4 1 1 5
M  V30 5 1 2 6
M  V30 6 1 3 7
M  V30 7 1 4 8
M  V30 8 1 8 9
M  V30 9 1 9 10
M  V30 10 1 10 11
M  V30 11 1 11 12
M  V30 12 1 12 13
M  V30 13 1 12 14
M  V30 14 1 12 15
M  V30 15 1 13 16
M  V30 16 1 14 17
M  V30 17 1 6 7
M  V30 18 1 16 17
M  V30 END BOND
M  V30 END CTAB
M  END
>  <Molecule Name>


>  <status>
DISCONTINUED

>  <cas>
144-44-5

>  <name>
PENTOLINIUM

>  <ID>
154

>  <Smiles>
C[N+]1(CCCCC[N+]2(C)CCCC2)CCCC1

$$$$

Actelion Java MolfileCreator 2.0

  0  0  0  0  0  0              0 V3000
M  V30 BEGIN CTAB
M  V30 COUNTS 14 13 0 0 0
M  V30 BEGIN ATOM
M  V30 1 S 6.0621 0.0 0.0 0
M  V30 2 O 6.5621 -0.866 0.0 0
M  V30 3 O 5.5621 0.866 0.0 0
M  V30 4 O 5.1961 -0.5 0.0 0
M  V30 5 C 6.9282 0.4999 0.0 0
M  V30 6 C 4.3301 0.0 0.0 0
M  V30 7 C 3.4641 -0.5 0.0 0
M  V30 8 C 2.598 0.0 0.0 0
M  V30 9 C 1.732 -0.5 0.0 0
M  V30 10 O 0.866 0.0 0.0 0
M  V30 11 S 0.0 -0.5 0.0 0
M  V30 12 O -0.4999 0.366 0.0 0
M  V30 13 O 0.4999 -1.366 0.0 0
M  V30 14 C -0.866 -0.9999 0.0 0
M  V30 END ATOM
M  V30 BEGIN BOND
M  V30 1 2 1 2
M  V30 2 2 1 3
M  V30 3 1 1 4
M  V30 4 1 1 5
M  V30 5 1 4 6
M  V30 6 1 6 7
M  V30 7 1 7 8
M  V30 8 1 8 9
M  V30 9 1 9 10
M  V30 10 1 10 11
M  V30 11 2 11 12
M  V30 12 2 11 13
M  V30 13 1 11 14
M  V30 END BOND
M  V30 END CTAB
M  END
>  <Molecule Name>


>  <status>
-

>  <cas>
55-98-1

>  <name>
BUSULFAN

>  <ID>
155

>  <Smiles>
CS(OCCCCOS(C)(=O)=O)(=O)=O

$$$$
_c001
Actelion Java MolfileCreator 2.0

  0  0  0  0  0  0              0 V3000
M  V30 BEGIN CTAB
M  V30 COUNTS 16 16 0 0 0
M  V30 BEGIN ATOM
M  V30 1 O -2.598 -1.9999 0.0 0
M  V30 2 C -1.732 -1.4999 0.0 0
M  V30 3 N -0.866 -1.9999 0.0 0
M  V30 4 N -1.732 -0.4999 0.0 0
M  V30 5 C 0.0 -1.5 0.0 0
M  V30 6 C -0.866 0.0 0.0 0
M  V30 7 O 1.116 -2.0 0.0 0
M  V30 8 C 0.0 -0.5 0.0 0
M  V30 9 O -0.866 1.0 0.0 0
M  V30 10 C 0.866 -1.0 0.0 0 CFG=2
M  V30 11 C 0.866 0.0 0.0 0
M  V30 12 C 0.7847 -2.1815 0.0 0
M  V30 13 C 1.732 -0.5 0.0 0
M  V30 14 C 0.866 0.9999 0.0 0
M  V30 15 C 0.0 -2.5 0.0 0
M  V30 16 C 1.732 1.4999 0.0 0
M  V30 END ATOM
M  V30 BEGIN BOND
M  V30 1 2 1 2
M  V30 2 1 2 3
M  V30 3 1 2 4
M  V30 4 1 3 5
M  V30 5 1 4 6
M  V30 6 2 5 7
M  V30 7 1 5 8
M  V30 8 2 6 9
M  V30 9 1 10 8
M  V30 10 1 8 11
M  V30 11 1 10 12
M  V30 12 1 10 13 CFG=1
M  V30 13 1 11 14
M  V30 14 1 12 15
M  V30 15 2 14 16
M  V30 16 1 6 8
M  V30 END BOND
M  V30 BEGIN COLLECTION
M  V30 MDLV30/STERAC1 ATOMS=(1 10)
M  V30 END COLLECTION
M  V30 END CTAB
M  END
>  <Molecule Name>
_c001

>  <status>
DISCONTINUED

>  <cas>
115-44-6

>  <name>
TALBUTAL

>  <ID>
156

>  <Smiles>
CCC(C)C(CC=C)(C(NC(N1)=O)=O)C1=O

$$$$

Actelion Java MolfileCreator 2.0

  0  0  0  0  0  0              0 V3000
M  V30 BEGIN CTAB
M  V30 COUNTS 18 18 0 0 0
M  V30 BEGIN ATOM
M  V30 1 Cl 5.1961 1.5 0.0 0
M  V30 2 C 6.0621 1.0 0.0 0
M  V30 3 C 6.0621 0.0 0.0 0
M  V30 4 C 6.9282 1.4999 0.0 0
M  V30 5 C 5.1961 -0.5 0.0 0
M  V30 6 C 6.9282 -0.5 0.0 0
M  V30 7 C 7.7942 1.0 0.0 0
M  V30 8 O 5.1961 -1.4999 0.0 0
M  V30 9 O 4.3301 0.0 0.0 0
M  V30 10 C 7.7942 0.0 0.0 0
M  V30 11 N 8.6602 1.5 0.0 0
M  V30 12 C 3.4641 -0.5 0.0 0
M  V30 13 C 2.598 0.0 0.0 0
M  V30 14 N 1.732 -0.5 0.0 0
M  V30 15 C 1.732 -1.5 0.0 0
M  V30 16 C 0.866 0.0 0.0 0
M  V30 17 C 2.598 -1.9999 0.0 0
M  V30 18 C 0.0 -0.5 0.0 0
M  V30 END ATOM
M  V30 BEGIN BOND
M  V30 1 1 1 2
M  V30 2 2 2 3
M  V30 3 1 2 4
M  V30 4 1 3 5
M  V30 5 1 3 6
M  V30 6 2 4 7
M  V30 7 2 5 8
M  V30 8 1 5 9
M  V30 9 2 6 10
M  V30 10 1 7 11
M  V30 11 1 9 12
M  V30 12 1 12 13
M  V30 13 1 13 14
M  V30 14 1 14 15
M  V30 15 1 14 16
M  V30 16 1 15 17
M  V30 17 1 16 18
M  V30 18 1 7 10
M  V30 END BOND
M  V30 END CTAB
M  END
>  <Molecule Name>


>  <status>
-

>  <cas>
133-16-4

>  <name>
CHLOROPROCAINE

>  <ID>
157

>  <Smiles>
CCN(CC)CCOC(c(ccc(N)c1)c1Cl)=O

$$$$

Actelion Java MolfileCreator 2.0

  0  0  0  0  0  0              0 V3000
M  V30 BEGIN CTAB
M  V30 COUNTS 57 64 0 0 0
M  V30 BEGIN ATOM
M  V30 1 O -11.5621 -3.6943 0.0 0
M  V30 2 C -10.1918 -4.3044 0.0 0
M  V30 3 O -9.8799 -5.7716 0.0 0
M  V30 4 C -8.8928 -3.5544 0.0 0
M  V30 5 C -8.3881 -5.9284 0.0 0
M  V30 6 C -7.778 -4.5581 0.0 0
M  V30 7 C -6.3108 -4.2463 0.0 0 CFG=2
M  V30 8 C -5.1961 -5.25 0.0 0 CFG=2
M  V30 9 C -5.7007 -2.8759 0.0 0
M  V30 10 C -3.8971 -4.5 0.0 0 CFG=1
M  V30 11 C -5.1961 -6.75 0.0 0
M  V30 12 C -6.5664 -5.8601 0.0 0
M  V30 13 C -4.2089 -3.0327 0.0 0
M  V30 14 O -2.6835 -3.6183 0.0 0
M  V30 15 C -2.598 -5.25 0.0 0 CFG=1
M  V30 16 C -3.8971 -7.5 0.0 0
M  V30 17 C -2.598 -6.75 0.0 0 CFG=2
M  V30 18 C -1.299 -4.5 0.0 0
M  V30 19 C -1.299 -7.5 0.0 0 CFG=2
M  V30 20 C 0.0 -5.25 0.0 0
M  V30 21 C 0.0 -6.75 0.0 0 CFG=2
M  V30 22 C -1.299 -9.0 0.0 0
M  V30 23 C -2.598 -8.25 0.0 0
M  V30 24 C 1.299 -7.5 0.0 0
M  V30 25 C 0.0 -9.75 0.0 0
M  V30 26 C 1.299 -9.0 0.0 0 CFG=2
M  V30 27 O 2.598 -9.75 0.0 0
M  V30 28 C 3.8971 -9.0 0.0 0 CFG=2
M  V30 29 O 5.1961 -9.75 0.0 0
M  V30 30 C 3.8971 -7.5 0.0 0
M  V30 31 C 6.4951 -9.0 0.0 0 CFG=1
M  V30 32 C 5.1961 -6.75 0.0 0 CFG=1
M  V30 33 C 6.4951 -7.5 0.0 0 CFG=2
M  V30 34 C 7.7942 -9.75 0.0 0
M  V30 35 O 5.1961 -5.25 0.0 0
M  V30 36 O 7.7942 -6.75 0.0 0
M  V30 37 C 7.7942 -5.25 0.0 0 CFG=2
M  V30 38 O 9.0932 -4.5 0.0 0
M  V30 39 C 6.4951 -4.5 0.0 0
M  V30 40 C 9.0932 -2.9999 0.0 0 CFG=1
M  V30 41 C 6.4951 -3.0 0.0 0 CFG=1
M  V30 42 C 7.7942 -2.25 0.0 0 CFG=2
M  V30 43 C 10.3923 -2.2499 0.0 0
M  V30 44 O 5.1961 -2.25 0.0 0
M  V30 45 O 7.7942 -0.75 0.0 0
M  V30 46 C 6.4951 0.0 0.0 0 CFG=2
M  V30 47 O 6.4951 1.5 0.0 0
M  V30 48 C 5.1961 -0.7499 0.0 0
M  V30 49 C 5.1961 2.25 0.0 0 CFG=1
M  V30 50 C 3.8971 0.0 0.0 0 CFG=1
M  V30 51 C 3.8971 1.5 0.0 0 CFG=2
M  V30 52 C 5.1961 3.75 0.0 0
M  V30 53 O 2.598 -0.75 0.0 0
M  V30 54 O 2.598 2.25 0.0 0
M  V30 55 C 1.299 0.0 0.0 0
M  V30 56 O 1.299 1.5 0.0 0
M  V30 57 C 0.0 -0.75 0.0 0
M  V30 END ATOM
M  V30 BEGIN BOND
M  V30 1 2 1 2
M  V30 2 1 2 3
M  V30 3 1 2 4
M  V30 4 1 3 5
M  V30 5 2 4 6
M  V30 6 1 7 6 CFG=1
M  V30 7 1 8 7
M  V30 8 1 7 9
M  V30 9 1 10 8
M  V30 10 1 8 11
M  V30 11 1 8 12 CFG=1
M  V30 12 1 9 13
M  V30 13 1 10 14 CFG=1
M  V30 14 1 15 10
M  V30 15 1 11 16
M  V30 16 1 17 15
M  V30 17 1 15 18 CFG=3
M  V30 18 1 19 17
M  V30 19 1 18 20
M  V30 20 1 21 19
M  V30 21 1 19 22
M  V30 22 1 19 23 CFG=1
M  V30 23 1 21 24 CFG=3
M  V30 24 1 22 25
M  V30 25 1 26 24
M  V30 26 1 26 27 CFG=1
M  V30 27 1 28 27 CFG=1
M  V30 28 1 28 29
M  V30 29 1 28 30
M  V30 30 1 31 29
M  V30 31 1 32 30
M  V30 32 1 33 31
M  V30 33 1 31 34 CFG=1
M  V30 34 1 32 35 CFG=3
M  V30 35 1 33 36 CFG=3
M  V30 36 1 37 36 CFG=1
M  V30 37 1 37 38
M  V30 38 1 37 39
M  V30 39 1 40 38
M  V30 40 1 41 39
M  V30 41 1 42 40
M  V30 42 1 40 43 CFG=1
M  V30 43 1 41 44 CFG=3
M  V30 44 1 42 45 CFG=3
M  V30 45 1 46 45 CFG=1
M  V30 46 1 46 47
M  V30 47 1 46 48
M  V30 48 1 49 47
M  V30 49 1 50 48
M  V30 50 1 51 49
M  V30 51 1 49 52 CFG=1
M  V30 52 1 50 53 CFG=3
M  V30 53 1 51 54 CFG=3
M  V30 54 1 53 55
M  V30 55 2 55 56
M  V30 56 1 55 57
M  V30 57 1 5 6
M  V30 58 1 10 13
M  V30 59 1 17 16 CFG=1
M  V30 60 1 20 21
M  V30 61 1 25 26
M  V30 62 1 32 33
M  V30 63 1 41 42
M  V30 64 1 50 51
M  V30 END BOND
M  V30 BEGIN COLLECTION
M  V30 MDLV30/STERAC1 ATOMS=(20 7 8 10 15 17 19 21 26 28 31 32 33 37 40 41 42 46 49 50 51)
M  V30 END COLLECTION
M  V30 END CTAB
M  END
>  <Molecule Name>


>  <status>
DISCONTINUED

>  <cas>
1111-39-3

>  <name>
ACETYLDIGITOXIN

>  <ID>
158

>  <Smiles>
C[C@H]([C@H]([C@H](C1)OC(C)=O)O)O[C@H]1O[C@H]([C@@H](C)O[C@H](C1)O[C@H]([C@@H](C)O[C@H](C2)O[C@@H](CC3)C[C@@H](CC4)[C@@]3(C)[C@@H](CC[C@]3(C)[C@H](CC5)C(CO6)=CC6=O)[C@@H]4[C@]35O)[C@H]2O)[C@H]1O

$$$$

Actelion Java MolfileCreator 2.0

  0  0  0  0  0  0              0 V3000
M  V30 BEGIN CTAB
M  V30 COUNTS 23 24 0 0 0
M  V30 BEGIN ATOM
M  V30 1 O 5.1961 -0.5 0.0 0
M  V30 2 C 4.3301 0.0 0.0 0 CFG=2
M  V30 3 C 4.3301 0.9999 0.0 0
M  V30 4 C 4.3301 -1.0 0.0 0
M  V30 5 C 3.4641 -0.5 0.0 0
M  V30 6 C 5.1961 1.4999 0.0 0
M  V30 7 C 3.4641 1.5 0.0 0
M  V30 8 C 3.4641 -1.5 0.0 0
M  V30 9 C 5.1961 -1.4999 0.0 0
M  V30 10 C 2.598 0.0 0.0 0
M  V30 11 C 5.1961 2.4999 0.0 0
M  V30 12 C 3.4641 2.5 0.0 0
M  V30 13 C 3.4641 -2.5 0.0 0
M  V30 14 C 5.1961 -2.4999 0.0 0
M  V30 15 N 1.732 -0.5 0.0 0 CHG=1
M  V30 16 C 4.3301 2.9999 0.0 0
M  V30 17 C 4.3301 -3.0 0.0 0
M  V30 18 C 1.732 -1.5 0.0 0
M  V30 19 C 2.598 -0.9999 0.0 0
M  V30 20 C 0.866 0.0 0.0 0
M  V30 21 C 0.866 -1.9999 0.0 0
M  V30 22 C 2.598 -1.9999 0.0 0
M  V30 23 C 0.0 -0.5 0.0 0
M  V30 END ATOM
M  V30 BEGIN BOND
M  V30 1 1 2 1
M  V30 2 1 2 3
M  V30 3 1 2 4 CFG=1
M  V30 4 1 2 5
M  V30 5 2 3 6
M  V30 6 1 3 7
M  V30 7 1 4 8
M  V30 8 1 4 9
M  V30 9 1 5 10
M  V30 10 1 6 11
M  V30 11 2 7 12
M  V30 12 1 8 13
M  V30 13 1 9 14
M  V30 14 1 10 15
M  V30 15 2 11 16
M  V30 16 1 13 17
M  V30 17 1 15 18
M  V30 18 1 15 19
M  V30 19 1 15 20
M  V30 20 1 18 21
M  V30 21 1 19 22
M  V30 22 1 20 23
M  V30 23 1 12 16
M  V30 24 1 14 17
M  V30 END BOND
M  V30 BEGIN COLLECTION
M  V30 MDLV30/STERAC1 ATOMS=(1 2)
M  V30 END COLLECTION
M  V30 END CTAB
M  END
>  <Molecule Name>


>  <status>
DISCONTINUED

>  <cas>
4310-35-4

>  <name>
TRIDIHEXETHYL

>  <ID>
159

>  <Smiles>
CC[N+](CC)(CC)CCC(C1CCCCC1)(c1ccccc1)O

$$$$

Actelion Java MolfileCreator 2.0

  0  0  0  0  0  0              0 V3000
M  V30 BEGIN CTAB
M  V30 COUNTS 12 12 0 0 0
M  V30 BEGIN ATOM
M  V30 1 O 3.4641 2.5 0.0 0
M  V30 2 C 3.4641 1.5 0.0 0
M  V30 3 C 2.598 1.0 0.0 0
M  V30 4 C 4.3301 1.0 0.0 0
M  V30 5 C 2.598 0.0 0.0 0
M  V30 6 C 4.3301 0.0 0.0 0
M  V30 7 C 3.4641 -0.4999 0.0 0
M  V30 8 C 1.732 -0.5 0.0 0 CFG=1
M  V30 9 O 1.732 -1.5 0.0 0
M  V30 10 C 0.866 0.0 0.0 0 CFG=1
M  V30 11 N 0.866 1.0 0.0 0
M  V30 12 C 0.0 -0.5 0.0 0
M  V30 END ATOM
M  V30 BEGIN BOND
M  V30 1 1 1 2
M  V30 2 2 2 3
M  V30 3 1 2 4
M  V30 4 1 3 5
M  V30 5 2 4 6
M  V30 6 2 5 7
M  V30 7 1 8 5
M  V30 8 1 8 9 CFG=1
M  V30 9 1 10 8
M  V30 10 1 10 11 CFG=3
M  V30 11 1 10 12
M  V30 12 1 6 7
M  V30 END BOND
M  V30 BEGIN COLLECTION
M  V30 MDLV30/STERAC1 ATOMS=(2 8 10)
M  V30 END COLLECTION
M  V30 END CTAB
M  END
>  <Molecule Name>


>  <status>
DISCONTINUED

>  <cas>
54-49-9

>  <name>
METARAMINOL

>  <ID>
160

>  <Smiles>
C[C@@H]([C@@H](c1cccc(O)c1)O)N

$$$$

Actelion Java MolfileCreator 2.0

  0  0  0  0  0  0              0 V3000
M  V30 BEGIN CTAB
M  V30 COUNTS 16 17 0 0 0
M  V30 BEGIN ATOM
M  V30 1 O -1.299 1.5 0.0 0
M  V30 2 C -1.299 0.0 0.0 0
M  V30 3 N -2.598 -0.7499 0.0 0
M  V30 4 C 0.0 -0.75 0.0 0 CFG=2
M  V30 5 C -2.598 -2.2499 0.0 0
M  V30 6 C 1.299 -1.5 0.0 0
M  V30 7 C 0.0 -2.25 0.0 0
M  V30 8 C 1.299 0.0 0.0 0
M  V30 9 O -3.8971 -2.9999 0.0 0
M  V30 10 C -1.299 -2.9999 0.0 0
M  V30 11 C 1.299 -3.0 0.0 0
M  V30 12 C 2.598 -0.75 0.0 0
M  V30 13 C 1.299 1.5 0.0 0
M  V30 14 C 2.598 -3.75 0.0 0
M  V30 15 C 3.8971 -1.5 0.0 0
M  V30 16 C 3.8971 -3.0 0.0 0
M  V30 END ATOM
M  V30 BEGIN BOND
M  V30 1 2 1 2
M  V30 2 1 2 3
M  V30 3 1 4 2
M  V30 4 1 3 5
M  V30 5 1 4 6 CFG=3
M  V30 6 1 4 7
M  V30 7 1 4 8
M  V30 8 2 5 9
M  V30 9 1 5 10
M  V30 10 2 6 11
M  V30 11 1 6 12
M  V30 12 1 8 13
M  V30 13 1 11 14
M  V30 14 2 12 15
M  V30 15 2 14 16
M  V30 16 1 7 10
M  V30 17 1 15 16
M  V30 END BOND
M  V30 BEGIN COLLECTION
M  V30 MDLV30/STERAC1 ATOMS=(1 4)
M  V30 END COLLECTION
M  V30 END CTAB
M  END
>  <Molecule Name>


>  <status>
DISCONTINUED

>  <cas>
77-21-4

>  <name>
GLUTETHIMIDE

>  <ID>
161

>  <Smiles>
CCC(CCC(N1)=O)(c2ccccc2)C1=O

$$$$

Actelion Java MolfileCreator 2.0

  0  0  0  0  0  0              0 V3000
M  V30 BEGIN CTAB
M  V30 COUNTS 23 24 0 0 0
M  V30 BEGIN ATOM
M  V30 1 Cl 11.2583 -2.0 0.0 0
M  V30 2 C 10.3923 -1.4999 0.0 0
M  V30 3 C 10.3923 -0.4999 0.0 0
M  V30 4 C 9.5262 -1.9999 0.0 0
M  V30 5 C 9.5262 0.0 0.0 0
M  V30 6 C 8.6602 -1.4999 0.0 0
M  V30 7 N 9.5262 1.0 0.0 0
M  V30 8 C 8.6602 -0.4999 0.0 0
M  V30 9 C 8.6602 1.5 0.0 0
M  V30 10 C 7.7942 0.0 0.0 0
M  V30 11 C 7.7942 0.9999 0.0 0
M  V30 12 N 6.9282 -0.5 0.0 0
M  V30 13 C 6.0621 0.0 0.0 0 CFG=2
M  V30 14 C 5.1961 -0.5 0.0 0
M  V30 15 C 6.0621 0.9999 0.0 0
M  V30 16 C 4.3301 0.0 0.0 0
M  V30 17 C 3.4641 -0.5 0.0 0
M  V30 18 N 2.598 0.0 0.0 0
M  V30 19 C 1.732 -0.5 0.0 0
M  V30 20 C 2.598 1.0 0.0 0
M  V30 21 C 0.866 0.0 0.0 0
M  V30 22 C 1.732 1.5 0.0 0
M  V30 23 O 0.0 -0.5 0.0 0
M  V30 END ATOM
M  V30 BEGIN BOND
M  V30 1 1 1 2
M  V30 2 2 2 3
M  V30 3 1 2 4
M  V30 4 1 3 5
M  V30 5 2 4 6
M  V30 6 2 5 7
M  V30 7 1 5 8
M  V30 8 1 7 9
M  V30 9 2 8 10
M  V30 10 2 9 11
M  V30 11 1 10 12
M  V30 12 1 13 12 CFG=3
M  V30 13 1 13 14
M  V30 14 1 13 15
M  V30 15 1 14 16
M  V30 16 1 16 17
M  V30 17 1 17 18
M  V30 18 1 18 19
M  V30 19 1 18 20
M  V30 20 1 19 21
M  V30 21 1 20 22
M  V30 22 1 21 23
M  V30 23 1 6 8
M  V30 24 1 10 11
M  V30 END BOND
M  V30 BEGIN COLLECTION
M  V30 MDLV30/STERAC1 ATOMS=(1 13)
M  V30 END COLLECTION
M  V30 END CTAB
M  END
>  <Molecule Name>


>  <status>
-

>  <cas>
118-42-3

>  <name>
HYDROXYCHLOROQUINE

>  <ID>
162

>  <Smiles>
CCN(CCCC(C)Nc1c(ccc(Cl)c2)c2ncc1)CCO

$$$$
_c001
Actelion Java MolfileCreator 2.0

  0  0  0  0  0  0              0 V3000
M  V30 BEGIN CTAB
M  V30 COUNTS 13 13 0 0 0
M  V30 BEGIN ATOM
M  V30 1 O -1.299 1.5 0.0 0
M  V30 2 C -1.299 0.0 0.0 0
M  V30 3 N -2.598 -0.7499 0.0 0
M  V30 4 C 0.0 -0.75 0.0 0
M  V30 5 C -2.598 -2.2499 0.0 0
M  V30 6 C 0.0 -2.25 0.0 0
M  V30 7 C 1.299 0.0 0.0 0
M  V30 8 C 1.299 -1.5 0.0 0
M  V30 9 C -1.299 -2.9999 0.0 0 CFG=1
M  V30 10 O 1.299 -3.0 0.0 0
M  V30 11 C 1.299 1.4999 0.0 0
M  V30 12 C 2.598 -0.75 0.0 0
M  V30 13 C -1.299 -4.4999 0.0 0
M  V30 END ATOM
M  V30 BEGIN BOND
M  V30 1 2 1 2
M  V30 2 1 2 3
M  V30 3 1 2 4
M  V30 4 1 3 5
M  V30 5 1 4 6
M  V30 6 1 4 7
M  V30 7 1 4 8
M  V30 8 1 9 5
M  V30 9 2 6 10
M  V30 10 1 7 11
M  V30 11 1 8 12
M  V30 12 1 9 13 CFG=1
M  V30 13 1 6 9
M  V30 END BOND
M  V30 BEGIN COLLECTION
M  V30 MDLV30/STERAC1 ATOMS=(1 9)
M  V30 END COLLECTION
M  V30 END CTAB
M  END
>  <Molecule Name>
_c001

>  <status>
DISCONTINUED

>  <cas>
125-64-4

>  <name>
METHYPRYLON

>  <ID>
163

>  <Smiles>
CCC(CC)(C(C(C)CN1)=O)C1=O

$$$$

Actelion Java MolfileCreator 2.0

  0  0  0  0  0  0              0 V3000
M  V30 BEGIN CTAB
M  V30 COUNTS 15 14 0 0 0
M  V30 BEGIN ATOM
M  V30 1 O 6.9282 -0.5 0.0 0
M  V30 2 C 6.0621 0.0 0.0 0
M  V30 3 O 5.1961 -0.5 0.0 0
M  V30 4 N 6.0621 0.9999 0.0 0
M  V30 5 C 4.3301 0.0 0.0 0
M  V30 6 C 3.4641 -0.5 0.0 0
M  V30 7 C 2.598 0.0 0.0 0
M  V30 8 C 3.4641 -1.5 0.0 0
M  V30 9 C 3.4641 0.5 0.0 0
M  V30 10 O 1.732 -0.5 0.0 0
M  V30 11 C 2.598 -2.0 0.0 0
M  V30 12 C 0.866 0.0 0.0 0
M  V30 13 C 2.598 -3.0 0.0 0
M  V30 14 O 0.866 1.0 0.0 0
M  V30 15 N 0.0 -0.5 0.0 0
M  V30 END ATOM
M  V30 BEGIN BOND
M  V30 1 2 1 2
M  V30 2 1 2 3
M  V30 3 1 2 4
M  V30 4 1 3 5
M  V30 5 1 5 6
M  V30 6 1 6 7
M  V30 7 1 6 8
M  V30 8 1 6 9
M  V30 9 1 7 10
M  V30 10 1 8 11
M  V30 11 1 10 12
M  V30 12 1 11 13
M  V30 13 2 12 14
M  V30 14 1 12 15
M  V30 END BOND
M  V30 END CTAB
M  END
>  <Molecule Name>


>  <status>
-

>  <cas>
57-53-4

>  <name>
MEPROBAMATE

>  <ID>
164

>  <Smiles>
CCCC(C)(COC(N)=O)COC(N)=O

$$$$

Actelion Java MolfileCreator 2.0

  0  0  0  0  0  0              0 V3000
M  V30 BEGIN CTAB
M  V30 COUNTS 12 12 0 0 0
M  V30 BEGIN ATOM
M  V30 1 O 3.8971 0.0 0.0 0
M  V30 2 C 2.598 -0.75 0.0 0
M  V30 3 O 1.299 0.0 0.0 0
M  V30 4 N 2.598 -2.25 0.0 0
M  V30 5 C 0.0 -0.75 0.0 0
M  V30 6 C 0.0 0.75 0.0 0
M  V30 7 C -1.299 -1.4999 0.0 0
M  V30 8 C 1.299 -1.5 0.0 0
M  V30 9 C 0.0 2.25 0.0 0
M  V30 10 C -1.299 -2.9999 0.0 0
M  V30 11 C 1.299 -3.0 0.0 0
M  V30 12 C 0.0 -3.75 0.0 0
M  V30 END ATOM
M  V30 BEGIN BOND
M  V30 1 2 1 2
M  V30 2 1 2 3
M  V30 3 1 2 4
M  V30 4 1 3 5
M  V30 5 1 5 6
M  V30 6 1 5 7
M  V30 7 1 5 8
M  V30 8 3 6 9
M  V30 9 1 7 10
M  V30 10 1 8 11
M  V30 11 1 10 12
M  V30 12 1 11 12
M  V30 END BOND
M  V30 END CTAB
M  END
>  <Molecule Name>


>  <status>
DISCONTINUED

>  <cas>
126-52-3

>  <name>
ETHINAMATE

>  <ID>
165

>  <Smiles>
C#CC1(CCCCC1)OC(N)=O

$$$$

Actelion Java MolfileCreator 2.0

  0  0  0  0  0  0              0 V3000
M  V30 BEGIN CTAB
M  V30 COUNTS 26 29 0 0 0
M  V30 BEGIN ATOM
M  V30 1 O 9.8723 -9.8585 0.0 0
M  V30 2 C 8.8647 -8.7394 0.0 0
M  V30 3 C 7.3917 -9.0525 0.0 0
M  V30 4 C 9.33 -7.3072 0.0 0
M  V30 5 C 6.3841 -7.9334 0.0 0
M  V30 6 C 8.3224 -6.1881 0.0 0
M  V30 7 C 6.8494 -6.5012 0.0 0 CFG=2
M  V30 8 C 4.9111 -8.2465 0.0 0
M  V30 9 C 5.8418 -5.3821 0.0 0 CFG=1
M  V30 10 C 7.3148 -5.069 0.0 0
M  V30 11 C 3.9035 -7.1274 0.0 0
M  V30 12 C 6.3071 -3.9499 0.0 0
M  V30 13 C 4.3688 -5.6952 0.0 0 CFG=1
M  V30 14 O 7.7801 -3.6368 0.0 0
M  V30 15 C 5.2995 -2.8308 0.0 0
M  V30 16 C 3.3612 -4.5761 0.0 0 CFG=1
M  V30 17 C 3.8265 -3.1439 0.0 0 CFG=1
M  V30 18 C 1.8553 -4.5761 0.0 0
M  V30 19 C 2.6082 -2.2588 0.0 0 CFG=1
M  V30 20 C 4.2602 -1.7319 0.0 0
M  V30 21 C 1.3899 -3.1439 0.0 0
M  V30 22 O 3.7088 -1.4532 0.0 0
M  V30 23 C 2.6082 -0.7529 0.0 0
M  V30 24 O 3.9124 0.0 0.0 0
M  V30 25 C 1.3041 0.0 0.0 0
M  V30 26 O 0.0 -0.7529 0.0 0
M  V30 END ATOM
M  V30 BEGIN BOND
M  V30 1 2 1 2
M  V30 2 1 2 3
M  V30 3 1 2 4
M  V30 4 2 3 5
M  V30 5 2 4 6
M  V30 6 1 7 5
M  V30 7 1 5 8
M  V30 8 1 9 7
M  V30 9 1 7 10 CFG=3
M  V30 10 1 8 11
M  V30 11 1 9 12 CFG=3
M  V30 12 1 13 9
M  V30 13 2 12 14
M  V30 14 1 12 15
M  V30 15 1 16 13
M  V30 16 1 17 15
M  V30 17 1 16 18 CFG=3
M  V30 18 1 19 17
M  V30 19 1 17 20 CFG=3
M  V30 20 1 18 21
M  V30 21 1 19 22 CFG=1
M  V30 22 1 19 23
M  V30 23 2 23 24
M  V30 24 1 23 25
M  V30 25 1 25 26
M  V30 26 1 6 7
M  V30 27 1 13 11 CFG=1
M  V30 28 1 16 17
M  V30 29 1 19 21
M  V30 END BOND
M  V30 BEGIN COLLECTION
M  V30 MDLV30/STERAC1 ATOMS=(6 7 9 13 16 17 19)
M  V30 END COLLECTION
M  V30 END CTAB
M  END
>  <Molecule Name>


>  <status>
-

>  <cas>
53-03-2

>  <name>
PREDNISONE

>  <ID>
166

>  <Smiles>
C[C@](C1)([C@@H](CC2)[C@H](CCC([C@]3(C)C=C4)=CC4=O)[C@@H]3C1=O)[C@]2(C(CO)=O)O

$$$$

Actelion Java MolfileCreator 2.0

  0  0  0  0  0  0              0 V3000
M  V30 BEGIN CTAB
M  V30 COUNTS 23 24 0 0 0
M  V30 BEGIN ATOM
M  V30 1 Cl 11.2583 -2.0 0.0 0
M  V30 2 C 10.3923 -1.4999 0.0 0
M  V30 3 C 10.3923 -0.4999 0.0 0
M  V30 4 C 9.5262 -1.9999 0.0 0
M  V30 5 C 9.5262 0.0 0.0 0
M  V30 6 C 8.6602 -1.4999 0.0 0
M  V30 7 N 9.5262 1.0 0.0 0
M  V30 8 C 8.6602 -0.4999 0.0 0
M  V30 9 C 8.6602 1.5 0.0 0
M  V30 10 C 7.7942 0.0 0.0 0
M  V30 11 C 7.7942 0.9999 0.0 0
M  V30 12 N 6.9282 -0.5 0.0 0
M  V30 13 C 6.0621 0.0 0.0 0 CFG=2
M  V30 14 C 5.1961 -0.5 0.0 0
M  V30 15 C 6.0621 0.9999 0.0 0
M  V30 16 C 4.3301 0.0 0.0 0
M  V30 17 C 3.4641 -0.5 0.0 0
M  V30 18 N 2.598 0.0 0.0 0
M  V30 19 C 1.732 -0.5 0.0 0
M  V30 20 C 2.598 1.0 0.0 0
M  V30 21 C 0.866 0.0 0.0 0
M  V30 22 C 1.732 1.5 0.0 0
M  V30 23 O 0.0 -0.5 0.0 0
M  V30 END ATOM
M  V30 BEGIN BOND
M  V30 1 1 1 2
M  V30 2 2 2 3
M  V30 3 1 2 4
M  V30 4 1 3 5
M  V30 5 2 4 6
M  V30 6 2 5 7
M  V30 7 1 5 8
M  V30 8 1 7 9
M  V30 9 2 8 10
M  V30 10 2 9 11
M  V30 11 1 10 12
M  V30 12 1 13 12 CFG=3
M  V30 13 1 13 14
M  V30 14 1 13 15
M  V30 15 1 14 16
M  V30 16 1 16 17
M  V30 17 1 17 18
M  V30 18 1 18 19
M  V30 19 1 18 20
M  V30 20 1 19 21
M  V30 21 1 20 22
M  V30 22 1 21 23
M  V30 23 1 6 8
M  V30 24 1 10 11
M  V30 END BOND
M  V30 BEGIN COLLECTION
M  V30 MDLV30/STERAC1 ATOMS=(1 13)
M  V30 END COLLECTION
M  V30 END CTAB
M  END
>  <Molecule Name>


>  <status>
-

>  <cas>
118-42-3

>  <name>
HYDROXYCHLOROQUINE

>  <ID>
167

>  <Smiles>
CCN(CCCC(C)Nc1c(ccc(Cl)c2)c2ncc1)CCO

$$$$

Actelion Java MolfileCreator 2.0

  0  0  0  0  0  0              0 V3000
M  V30 BEGIN CTAB
M  V30 COUNTS 21 23 0 0 0
M  V30 BEGIN ATOM
M  V30 1 O 3.4641 -0.5 0.0 0
M  V30 2 C 2.598 0.0 0.0 0 CFG=2
M  V30 3 C 2.598 1.0 0.0 0
M  V30 4 C 2.598 -1.0 0.0 0
M  V30 5 C 1.732 -0.5 0.0 0
M  V30 6 C 3.4641 1.5 0.0 0
M  V30 7 C 1.732 1.4999 0.0 0
M  V30 8 C 1.732 -1.5 0.0 0
M  V30 9 C 3.4641 -1.4999 0.0 0
M  V30 10 C 0.866 0.0 0.0 0
M  V30 11 C 3.4641 2.5 0.0 0
M  V30 12 C 1.732 2.5 0.0 0
M  V30 13 C 1.732 -2.5 0.0 0
M  V30 14 C 3.4641 -2.4999 0.0 0
M  V30 15 N 0.0 -0.5 0.0 0
M  V30 16 C 2.598 3.0 0.0 0
M  V30 17 C 2.598 -2.9999 0.0 0
M  V30 18 C -0.9135 -0.0932 0.0 0
M  V30 19 C -0.1045 -1.4945 0.0 0
M  V30 20 C -1.5826 -0.8364 0.0 0
M  V30 21 C -1.0826 -1.7024 0.0 0
M  V30 END ATOM
M  V30 BEGIN BOND
M  V30 1 1 2 1
M  V30 2 1 2 3
M  V30 3 1 2 4 CFG=1
M  V30 4 1 2 5
M  V30 5 2 3 6
M  V30 6 1 3 7
M  V30 7 1 4 8
M  V30 8 1 4 9
M  V30 9 1 5 10
M  V30 10 1 6 11
M  V30 11 2 7 12
M  V30 12 1 8 13
M  V30 13 1 9 14
M  V30 14 1 10 15
M  V30 15 2 11 16
M  V30 16 1 13 17
M  V30 17 1 15 18
M  V30 18 1 15 19
M  V30 19 1 18 20
M  V30 20 1 19 21
M  V30 21 1 12 16
M  V30 22 1 14 17
M  V30 23 1 20 21
M  V30 END BOND
M  V30 BEGIN COLLECTION
M  V30 MDLV30/STERAC1 ATOMS=(1 2)
M  V30 END COLLECTION
M  V30 END CTAB
M  END
>  <Molecule Name>


>  <status>
DISCONTINUED

>  <cas>
77-37-2

>  <name>
PROCYCLIDINE

>  <ID>
168

>  <Smiles>
OC(CCN1CCCC1)(C1CCCCC1)c1ccccc1

$$$$

Actelion Java MolfileCreator 2.0

  0  0  0  0  0  0              0 V3000
M  V30 BEGIN CTAB
M  V30 COUNTS 13 13 0 0 0
M  V30 BEGIN ATOM
M  V30 1 O 1.732 -1.5 0.0 0
M  V30 2 C 1.732 -0.5 0.0 0
M  V30 3 O 2.598 0.0 0.0 0
M  V30 4 N 0.866 0.0 0.0 0
M  V30 5 C 3.4641 -0.5 0.0 0
M  V30 6 C 0.866 1.0 0.0 0
M  V30 7 C 0.0 -0.5 0.0 0
M  V30 8 C 3.4641 -1.5 0.0 0
M  V30 9 C 4.3301 0.0 0.0 0
M  V30 10 N 4.3301 -2.0 0.0 0 CHG=1
M  V30 11 C 5.1961 -0.5 0.0 0
M  V30 12 C 5.1961 -1.5 0.0 0
M  V30 13 C 4.3301 -3.0 0.0 0
M  V30 END ATOM
M  V30 BEGIN BOND
M  V30 1 2 1 2
M  V30 2 1 2 3
M  V30 3 1 2 4
M  V30 4 1 3 5
M  V30 5 1 4 6
M  V30 6 1 4 7
M  V30 7 2 5 8
M  V30 8 1 5 9
M  V30 9 1 8 10
M  V30 10 2 9 11
M  V30 11 2 10 12
M  V30 12 1 10 13
M  V30 13 1 11 12
M  V30 END BOND
M  V30 END CTAB
M  END
>  <Molecule Name>


>  <status>
-

>  <cas>
155-97-5

>  <name>
PYRIDOSTIGMINE

>  <ID>
169

>  <Smiles>
CN(C)C(Oc1c[n+](C)ccc1)=O

$$$$

Actelion Java MolfileCreator 2.0

  0  0  0  0  0  0              0 V3000
M  V30 BEGIN CTAB
M  V30 COUNTS 21 22 0 0 0
M  V30 BEGIN ATOM
M  V30 1 O 6.9282 2.5 0.0 0
M  V30 2 C 6.9282 1.4999 0.0 0
M  V30 3 C 6.0621 0.9999 0.0 0
M  V30 4 C 7.7942 0.9999 0.0 0
M  V30 5 C 5.1961 1.4999 0.0 0
M  V30 6 C 6.0621 0.0 0.0 0
M  V30 7 C 7.7942 0.0 0.0 0
M  V30 8 C 4.3301 0.9999 0.0 0
M  V30 9 C 5.1961 -0.5 0.0 0
M  V30 10 N 8.6602 -0.5 0.0 0
M  V30 11 C 4.3301 0.0 0.0 0
M  V30 12 C 8.6602 -1.5 0.0 0
M  V30 13 C 9.5262 0.0 0.0 0
M  V30 14 O 3.4641 -0.5 0.0 0
M  V30 15 C 9.5262 -2.0 0.0 0
M  V30 16 C 10.3923 -0.5 0.0 0
M  V30 17 C 2.598 0.0 0.0 0
M  V30 18 C 10.3923 -1.5 0.0 0
M  V30 19 C 1.732 -0.5 0.0 0
M  V30 20 C 0.866 0.0 0.0 0
M  V30 21 C 0.0 -0.5 0.0 0
M  V30 END ATOM
M  V30 BEGIN BOND
M  V30 1 2 1 2
M  V30 2 1 2 3
M  V30 3 1 2 4
M  V30 4 2 3 5
M  V30 5 1 3 6
M  V30 6 1 4 7
M  V30 7 1 5 8
M  V30 8 2 6 9
M  V30 9 1 7 10
M  V30 10 2 8 11
M  V30 11 1 10 12
M  V30 12 1 10 13
M  V30 13 1 11 14
M  V30 14 1 12 15
M  V30 15 1 13 16
M  V30 16 1 14 17
M  V30 17 1 15 18
M  V30 18 1 17 19
M  V30 19 1 19 20
M  V30 20 1 20 21
M  V30 21 1 9 11
M  V30 22 1 16 18
M  V30 END BOND
M  V30 END CTAB
M  END
>  <Molecule Name>


>  <status>
-

>  <cas>
586-60-7

>  <name>
DYCLONINE

>  <ID>
170

>  <Smiles>
CCCCOc(cc1)ccc1C(CCN1CCCCC1)=O

$$$$

Actelion Java MolfileCreator 2.0

  0  0  0  0  0  0              0 V3000
M  V30 BEGIN CTAB
M  V30 COUNTS 26 29 0 0 0
M  V30 BEGIN ATOM
M  V30 1 O 9.8723 -9.8585 0.0 0
M  V30 2 C 8.8647 -8.7394 0.0 0
M  V30 3 C 7.3917 -9.0525 0.0 0
M  V30 4 C 9.33 -7.3072 0.0 0
M  V30 5 C 6.3841 -7.9334 0.0 0
M  V30 6 C 8.3224 -6.1881 0.0 0
M  V30 7 C 6.8494 -6.5012 0.0 0 CFG=2
M  V30 8 C 4.9111 -8.2465 0.0 0
M  V30 9 C 5.8418 -5.3821 0.0 0 CFG=1
M  V30 10 C 7.3148 -5.069 0.0 0
M  V30 11 C 3.9035 -7.1274 0.0 0
M  V30 12 C 6.3071 -3.9499 0.0 0 CFG=1
M  V30 13 C 4.3688 -5.6952 0.0 0 CFG=1
M  V30 14 O 7.7801 -3.6368 0.0 0
M  V30 15 C 5.2995 -2.8308 0.0 0
M  V30 16 C 3.3612 -4.5761 0.0 0 CFG=1
M  V30 17 C 3.8265 -3.1439 0.0 0 CFG=1
M  V30 18 C 1.8553 -4.5761 0.0 0
M  V30 19 C 2.6082 -2.2588 0.0 0 CFG=1
M  V30 20 C 4.2602 -1.7319 0.0 0
M  V30 21 C 1.3899 -3.1439 0.0 0
M  V30 22 O 3.7088 -1.4532 0.0 0
M  V30 23 C 2.6082 -0.7529 0.0 0
M  V30 24 O 3.9124 0.0 0.0 0
M  V30 25 C 1.3041 0.0 0.0 0
M  V30 26 O 0.0 -0.7529 0.0 0
M  V30 END ATOM
M  V30 BEGIN BOND
M  V30 1 2 1 2
M  V30 2 1 2 3
M  V30 3 1 2 4
M  V30 4 2 3 5
M  V30 5 2 4 6
M  V30 6 1 7 5
M  V30 7 1 5 8
M  V30 8 1 9 7
M  V30 9 1 7 10 CFG=3
M  V30 10 1 8 11
M  V30 11 1 9 12 CFG=3
M  V30 12 1 13 9
M  V30 13 1 12 14 CFG=3
M  V30 14 1 12 15
M  V30 15 1 16 13
M  V30 16 1 17 15
M  V30 17 1 16 18 CFG=3
M  V30 18 1 19 17
M  V30 19 1 17 20 CFG=3
M  V30 20 1 18 21
M  V30 21 1 19 22 CFG=1
M  V30 22 1 19 23
M  V30 23 2 23 24
M  V30 24 1 23 25
M  V30 25 1 25 26
M  V30 26 1 6 7
M  V30 27 1 13 11 CFG=1
M  V30 28 1 16 17
M  V30 29 1 19 21
M  V30 END BOND
M  V30 BEGIN COLLECTION
M  V30 MDLV30/STERAC1 ATOMS=(7 7 9 12 13 16 17 19)
M  V30 END COLLECTION
M  V30 END CTAB
M  END
>  <Molecule Name>


>  <status>
-

>  <cas>
50-24-8

>  <name>
PREDNISOLONE

>  <ID>
171

>  <Smiles>
C[C@](C[C@@H]1O)([C@@H](CC2)[C@H](CC3)[C@H]1[C@@](C)(C=C1)C3=CC1=O)[C@]2(C(CO)=O)O

$$$$
_c001
Actelion Java MolfileCreator 2.0

  0  0  0  0  0  0              0 V3000
M  V30 BEGIN CTAB
M  V30 COUNTS 29 32 0 0 0
M  V30 BEGIN ATOM
M  V30 1 O 12.476 -9.8549 0.0 0
M  V30 2 C 11.4688 -8.7362 0.0 0
M  V30 3 C 9.9963 -9.0492 0.0 0
M  V30 4 C 11.9339 -7.3045 0.0 0
M  V30 5 C 8.989 -7.9305 0.0 0
M  V30 6 C 10.9267 -6.1858 0.0 0
M  V30 7 C 9.4542 -6.4988 0.0 0 CFG=2
M  V30 8 C 7.5166 -8.2434 0.0 0
M  V30 9 C 8.447 -5.3801 0.0 0 CFG=1
M  V30 10 C 9.9194 -5.0672 0.0 0
M  V30 11 C 6.5093 -7.1248 0.0 0
M  V30 12 C 8.9121 -3.9485 0.0 0 CFG=1
M  V30 13 C 6.9745 -5.6931 0.0 0 CFG=1
M  V30 14 O 10.3846 -3.6355 0.0 0
M  V30 15 C 7.9049 -2.8298 0.0 0
M  V30 16 C 5.9672 -4.5744 0.0 0 CFG=1
M  V30 17 C 6.4324 -3.1428 0.0 0 CFG=1
M  V30 18 C 4.4619 -4.5744 0.0 0
M  V30 19 C 5.2146 -2.258 0.0 0 CFG=1
M  V30 20 C 6.866 -1.7312 0.0 0
M  V30 21 C 3.9967 -3.1428 0.0 0
M  V30 22 O 6.3147 -1.4527 0.0 0
M  V30 23 C 5.2146 -0.7526 0.0 0
M  V30 24 O 6.5182 0.0 0.0 0
M  V30 25 C 3.9109 0.0 0.0 0
M  V30 26 O 2.6073 -0.7526 0.0 0
M  V30 27 C 1.3036 0.0 0.0 0
M  V30 28 O 1.3036 1.5053 0.0 0
M  V30 29 C 0.0 -0.7526 0.0 0
M  V30 END ATOM
M  V30 BEGIN BOND
M  V30 1 2 1 2
M  V30 2 1 2 3
M  V30 3 1 2 4
M  V30 4 2 3 5
M  V30 5 2 4 6
M  V30 6 1 7 5
M  V30 7 1 5 8
M  V30 8 1 9 7
M  V30 9 1 7 10 CFG=3
M  V30 10 1 8 11
M  V30 11 1 9 12 CFG=3
M  V30 12 1 13 9
M  V30 13 1 12 14 CFG=3
M  V30 14 1 12 15
M  V30 15 1 16 13
M  V30 16 1 17 15
M  V30 17 1 16 18 CFG=3
M  V30 18 1 19 17
M  V30 19 1 17 20 CFG=3
M  V30 20 1 18 21
M  V30 21 1 19 22 CFG=1
M  V30 22 1 19 23
M  V30 23 2 23 24
M  V30 24 1 23 25
M  V30 25 1 25 26
M  V30 26 1 26 27
M  V30 27 2 27 28
M  V30 28 1 27 29
M  V30 29 1 6 7
M  V30 30 1 13 11 CFG=1
M  V30 31 1 16 17
M  V30 32 1 19 21
M  V30 END BOND
M  V30 BEGIN COLLECTION
M  V30 MDLV30/STERAC1 ATOMS=(7 7 9 12 13 16 17 19)
M  V30 END COLLECTION
M  V30 END CTAB
M  END
>  <Molecule Name>
_c001

>  <status>
-

>  <cas>
52-21-1

>  <name>
PREDNISOLONE ACETATE

>  <ID>
172

>  <Smiles>
C[C@](C[C@@H]1O)([C@@H](CC2)[C@H](CC3)[C@H]1[C@@](C)(C=C1)C3=CC1=O)[C@]2(C(COC(C)=O)=O)O

$$$$

Actelion Java MolfileCreator 2.0

  0  0  0  0  0  0              0 V3000
M  V30 BEGIN CTAB
M  V30 COUNTS 27 29 0 0 0
M  V30 BEGIN ATOM
M  V30 1 O 10.3923 3.7499 0.0 0
M  V30 2 C 10.3923 2.2499 0.0 0
M  V30 3 N 9.0932 1.5 0.0 0
M  V30 4 N 11.6913 1.4999 0.0 0
M  V30 5 C 9.0932 0.0 0.0 0
M  V30 6 C 11.6913 0.0 0.0 0
M  V30 7 N 7.7942 -0.75 0.0 0
M  V30 8 C 10.3923 -0.75 0.0 0
M  V30 9 O 12.9903 -0.75 0.0 0
M  V30 10 C 7.7942 -2.25 0.0 0
M  V30 11 C 6.4951 0.0 0.0 0
M  V30 12 N 10.3923 -2.25 0.0 0
M  V30 13 C 9.0932 -3.0 0.0 0
M  V30 14 C 6.4951 -3.0 0.0 0
M  V30 15 C 5.1961 -0.75 0.0 0 CFG=2
M  V30 16 C 9.0932 -4.5 0.0 0
M  V30 17 C 6.4951 -4.5 0.0 0
M  V30 18 O 5.1961 -2.25 0.0 0
M  V30 19 C 3.8971 0.0 0.0 0 CFG=2
M  V30 20 C 7.7942 -5.25 0.0 0
M  V30 21 C 5.1961 -5.25 0.0 0
M  V30 22 O 3.8971 1.5 0.0 0
M  V30 23 C 2.598 -0.75 0.0 0 CFG=2
M  V30 24 C 7.7942 -6.75 0.0 0
M  V30 25 O 2.598 -2.25 0.0 0
M  V30 26 C 1.299 0.0 0.0 0
M  V30 27 O 0.0 -0.75 0.0 0
M  V30 END ATOM
M  V30 BEGIN BOND
M  V30 1 2 1 2
M  V30 2 1 2 3
M  V30 3 1 2 4
M  V30 4 2 3 5
M  V30 5 1 4 6
M  V30 6 1 5 7
M  V30 7 1 5 8
M  V30 8 2 6 9
M  V30 9 1 7 10
M  V30 10 1 7 11
M  V30 11 2 8 12
M  V30 12 2 10 13
M  V30 13 1 10 14
M  V30 14 1 15 11
M  V30 15 1 13 16
M  V30 16 2 14 17
M  V30 17 1 15 18 CFG=3
M  V30 18 1 19 15
M  V30 19 2 16 20
M  V30 20 1 17 21
M  V30 21 1 19 22 CFG=1
M  V30 22 1 23 19
M  V30 23 1 20 24
M  V30 24 1 23 25 CFG=3
M  V30 25 1 23 26
M  V30 26 1 26 27
M  V30 27 1 6 8
M  V30 28 1 12 13
M  V30 29 1 17 20
M  V30 END BOND
M  V30 BEGIN COLLECTION
M  V30 MDLV30/STERAC1 ATOMS=(3 15 19 23)
M  V30 END COLLECTION
M  V30 END CTAB
M  END
>  <Molecule Name>


>  <status>
-

>  <cas>
83-88-5

>  <name>
RIBOFLAVIN

>  <ID>
173

>  <Smiles>
Cc(c(C)c1)cc(N2C[C@@H]([C@@H]([C@@H](CO)O)O)O)c1N=C(C(N1)=O)C2=NC1=O

$$$$

Actelion Java MolfileCreator 2.0

  0  0  0  0  0  0              0 V3000
M  V30 BEGIN CTAB
M  V30 COUNTS 9 8 0 0 0
M  V30 BEGIN ATOM
M  V30 1 Cl 2.598 0.0 0.0 0
M  V30 2 C 1.732 -0.5 0.0 0
M  V30 3 C 0.866 0.0 0.0 0
M  V30 4 C 0.0 -0.5 0.0 0 CFG=2
M  V30 5 O -0.866 0.0 0.0 0
M  V30 6 C -0.866 -0.9999 0.0 0
M  V30 7 C 0.0 -1.5 0.0 0
M  V30 8 C -1.732 -1.4999 0.0 0
M  V30 9 C -0.866 -1.9999 0.0 0
M  V30 END ATOM
M  V30 BEGIN BOND
M  V30 1 1 1 2
M  V30 2 2 2 3
M  V30 3 1 4 3
M  V30 4 1 4 5
M  V30 5 1 4 6 CFG=1
M  V30 6 1 4 7
M  V30 7 3 6 8
M  V30 8 1 7 9
M  V30 END BOND
M  V30 BEGIN COLLECTION
M  V30 MDLV30/STERAC1 ATOMS=(1 4)
M  V30 END COLLECTION
M  V30 END CTAB
M  END
>  <Molecule Name>


>  <status>
DISCONTINUED

>  <cas>
113-18-8

>  <name>
ETHCHLORVYNOL

>  <ID>
174

>  <Smiles>
CCC(/C=C/Cl)(C#C)O

$$$$

Actelion Java MolfileCreator 2.0

  0  0  0  0  0  0              0 V3000
M  V30 BEGIN CTAB
M  V30 COUNTS 30 33 0 0 0
M  V30 BEGIN ATOM
M  V30 1 F 9.6162 -4.9348 0.0 0
M  V30 2 C 8.4281 -5.3681 0.0 0 CFG=2
M  V30 3 C 9.4331 -6.4843 0.0 0 CFG=2
M  V30 4 C 8.8922 -3.9397 0.0 0 CFG=1
M  V30 5 C 6.959 -5.6804 0.0 0 CFG=2
M  V30 6 C 8.969 -7.9128 0.0 0
M  V30 7 C 10.9023 -6.172 0.0 0
M  V30 8 C 10.1628 -4.7903 0.0 0
M  V30 9 O 10.3614 -3.6274 0.0 0
M  V30 10 C 7.8872 -2.8235 0.0 0
M  V30 11 C 5.9539 -4.5642 0.0 0 CFG=1
M  V30 12 C 6.4948 -7.1089 0.0 0
M  V30 13 C 9.974 -9.029 0.0 0
M  V30 14 C 7.4998 -8.2251 0.0 0
M  V30 15 C 11.9073 -7.2882 0.0 0
M  V30 16 C 6.4181 -3.1358 0.0 0 CFG=1
M  V30 17 C 4.452 -4.5642 0.0 0
M  V30 18 C 11.4432 -8.7167 0.0 0
M  V30 19 C 5.203 -2.2529 0.0 0 CFG=1
M  V30 20 C 6.8506 -1.7274 0.0 0
M  V30 21 C 3.9878 -3.1358 0.0 0
M  V30 22 O 12.4482 -9.8329 0.0 0
M  V30 23 O 6.3006 -1.4495 0.0 0
M  V30 24 C 5.203 -0.7509 0.0 0
M  V30 25 O 6.5037 0.0 0.0 0
M  V30 26 C 3.9022 0.0 0.0 0
M  V30 27 O 2.6015 -0.7509 0.0 0
M  V30 28 C 1.3007 0.0 0.0 0
M  V30 29 O 1.3007 1.5019 0.0 0
M  V30 30 C 0.0 -0.7509 0.0 0
M  V30 END ATOM
M  V30 BEGIN BOND
M  V30 1 1 2 1 CFG=1
M  V30 2 1 3 2
M  V30 3 1 4 2
M  V30 4 1 5 2
M  V30 5 1 3 6
M  V30 6 1 3 7
M  V30 7 1 3 8 CFG=3
M  V30 8 1 4 9 CFG=3
M  V30 9 1 4 10
M  V30 10 1 11 5
M  V30 11 1 5 12 CFG=1
M  V30 12 2 6 13
M  V30 13 1 6 14
M  V30 14 1 7 15
M  V30 15 1 16 10
M  V30 16 1 11 17 CFG=3
M  V30 17 1 13 18
M  V30 18 1 19 16
M  V30 19 1 16 20 CFG=3
M  V30 20 1 17 21
M  V30 21 2 18 22
M  V30 22 1 19 23 CFG=1
M  V30 23 1 19 24
M  V30 24 2 24 25
M  V30 25 1 24 26
M  V30 26 1 26 27
M  V30 27 1 27 28
M  V30 28 2 28 29
M  V30 29 1 28 30
M  V30 30 1 11 16
M  V30 31 1 12 14
M  V30 32 1 15 18
M  V30 33 1 19 21
M  V30 END BOND
M  V30 BEGIN COLLECTION
M  V30 MDLV30/STERAC1 ATOMS=(7 2 3 4 5 11 16 19)
M  V30 END COLLECTION
M  V30 END CTAB
M  END
>  <Molecule Name>


>  <status>
-

>  <cas>
514-36-3

>  <name>
FLUDROCORTISONE ACETATE

>  <ID>
175

>  <Smiles>
C[C@](C[C@@H]1O)([C@@H](CC2)[C@H](CCC([C@]3(C)CC4)=CC4=O)[C@@]13F)[C@]2(C(COC(C)=O)=O)O

$$$$
_c001
Actelion Java MolfileCreator 2.0

  0  0  0  0  0  0              0 V3000
M  V30 BEGIN CTAB
M  V30 COUNTS 14 14 0 0 0
M  V30 BEGIN ATOM
M  V30 1 O 1.732 1.4999 0.0 0
M  V30 2 C 2.598 1.0 0.0 0
M  V30 3 C 0.866 1.0 0.0 0
M  V30 4 C 2.598 0.0 0.0 0
M  V30 5 C 3.4641 1.4999 0.0 0
M  V30 6 C 3.4641 -0.5 0.0 0
M  V30 7 C 1.732 -0.5 0.0 0 CFG=1
M  V30 8 C 4.3301 1.0 0.0 0
M  V30 9 C 4.3301 0.0 0.0 0
M  V30 10 O 1.732 -1.5 0.0 0
M  V30 11 C 0.866 0.0 0.0 0
M  V30 12 O 5.1961 -0.5 0.0 0
M  V30 13 N 0.0 -0.5 0.0 0
M  V30 14 C 6.0621 0.0 0.0 0
M  V30 END ATOM
M  V30 BEGIN BOND
M  V30 1 1 1 2
M  V30 2 1 1 3
M  V30 3 2 2 4
M  V30 4 1 2 5
M  V30 5 1 4 6
M  V30 6 1 7 4
M  V30 7 2 5 8
M  V30 8 2 6 9
M  V30 9 1 7 10 CFG=1
M  V30 10 1 7 11
M  V30 11 1 9 12
M  V30 12 1 11 13
M  V30 13 1 12 14
M  V30 14 1 8 9
M  V30 END BOND
M  V30 BEGIN COLLECTION
M  V30 MDLV30/STERAC1 ATOMS=(1 7)
M  V30 END COLLECTION
M  V30 END CTAB
M  END
>  <Molecule Name>
_c001

>  <status>
-

>  <cas>
3600-87-1

>  <name>
M MIDODRINE

>  <ID>
176

>  <Smiles>
COc(cc1)cc(C(CN)O)c1OC

$$$$

Actelion Java MolfileCreator 2.0

  0  0  0  0  0  0              0 V3000
M  V30 BEGIN CTAB
M  V30 COUNTS 11 11 0 0 0
M  V30 BEGIN ATOM
M  V30 1 O 5.1961 1.5 0.0 0
M  V30 2 C 4.3301 1.0 0.0 0
M  V30 3 C 3.4641 1.5 0.0 0
M  V30 4 C 4.3301 0.0 0.0 0
M  V30 5 C 2.598 0.9999 0.0 0
M  V30 6 C 3.4641 -0.4999 0.0 0
M  V30 7 C 2.598 0.0 0.0 0
M  V30 8 C 1.732 -0.5 0.0 0
M  V30 9 C 0.866 0.0 0.0 0 CFG=1
M  V30 10 N 0.866 1.0 0.0 0
M  V30 11 C 0.0 -0.5 0.0 0
M  V30 END ATOM
M  V30 BEGIN BOND
M  V30 1 1 1 2
M  V30 2 2 2 3
M  V30 3 1 2 4
M  V30 4 1 3 5
M  V30 5 2 4 6
M  V30 6 2 5 7
M  V30 7 1 7 8
M  V30 8 1 9 8
M  V30 9 1 9 10 CFG=3
M  V30 10 1 9 11
M  V30 11 1 6 7
M  V30 END BOND
M  V30 BEGIN COLLECTION
M  V30 MDLV30/STERAC1 ATOMS=(1 9)
M  V30 END COLLECTION
M  V30 END CTAB
M  END
>  <Molecule Name>


>  <status>
DISCONTINUED

>  <cas>
103-86-6

>  <name>
HYDROXYAMPHETAMINE

>  <ID>
177

>  <Smiles>
CC(Cc(cc1)ccc1O)N

$$$$

Actelion Java MolfileCreator 2.0

  0  0  0  0  0  0              0 V3000
M  V30 BEGIN CTAB
M  V30 COUNTS 33 34 0 0 0
M  V30 BEGIN ATOM
M  V30 1 O 12.9903 -1.9999 0.0 0
M  V30 2 C 13.8564 -1.4999 0.0 0
M  V30 3 C 14.7224 -1.9999 0.0 0
M  V30 4 C 13.8564 -0.5 0.0 0
M  V30 5 C 15.5884 -1.4999 0.0 0
M  V30 6 C 14.7224 -2.9999 0.0 0
M  V30 7 C 14.7224 0.0 0.0 0
M  V30 8 C 12.9903 0.0 0.0 0
M  V30 9 C 15.5884 -0.4999 0.0 0
M  V30 10 C 16.4544 -1.9999 0.0 0
M  V30 11 C 15.5884 -3.4999 0.0 0
M  V30 12 C 14.7224 1.0 0.0 0
M  V30 13 C 12.1243 -0.5 0.0 0
M  V30 14 O 16.4544 0.0 0.0 0
M  V30 15 C 16.4544 -2.9999 0.0 0
M  V30 16 C 11.2583 0.0 0.0 0
M  V30 17 C 10.3923 -0.5 0.0 0
M  V30 18 C 11.2583 1.0 0.0 0
M  V30 19 C 9.5262 0.0 0.0 0
M  V30 20 C 8.6602 -0.5 0.0 0
M  V30 21 C 7.7942 0.0 0.0 0 CFG=2
M  V30 22 C 6.9282 -0.5 0.0 0
M  V30 23 C 7.7942 0.9999 0.0 0
M  V30 24 C 6.0621 0.0 0.0 0
M  V30 25 C 5.1961 -0.5 0.0 0
M  V30 26 C 4.3301 0.0 0.0 0 CFG=2
M  V30 27 C 3.4641 -0.5 0.0 0
M  V30 28 C 4.3301 1.0 0.0 0
M  V30 29 C 2.598 0.0 0.0 0
M  V30 30 C 1.732 -0.5 0.0 0
M  V30 31 C 0.866 0.0 0.0 0
M  V30 32 C 0.866 1.0 0.0 0
M  V30 33 C 0.0 -0.5 0.0 0
M  V30 END ATOM
M  V30 BEGIN BOND
M  V30 1 2 1 2
M  V30 2 1 2 3
M  V30 3 1 2 4
M  V30 4 2 3 5
M  V30 5 1 3 6
M  V30 6 2 4 7
M  V30 7 1 4 8
M  V30 8 1 5 9
M  V30 9 1 5 10
M  V30 10 2 6 11
M  V30 11 1 7 12
M  V30 12 1 8 13
M  V30 13 2 9 14
M  V30 14 2 10 15
M  V30 15 2 13 16
M  V30 16 1 16 17
M  V30 17 1 16 18
M  V30 18 1 17 19
M  V30 19 1 19 20
M  V30 20 1 21 20
M  V30 21 1 21 22
M  V30 22 1 21 23 CFG=3
M  V30 23 1 22 24
M  V30 24 1 24 25
M  V30 25 1 26 25
M  V30 26 1 26 27
M  V30 27 1 26 28 CFG=3
M  V30 28 1 27 29
M  V30 29 1 29 30
M  V30 30 1 30 31
M  V30 31 1 31 32
M  V30 32 1 31 33
M  V30 33 1 7 9
M  V30 34 1 11 15
M  V30 END BOND
M  V30 BEGIN COLLECTION
M  V30 MDLV30/STERAC1 ATOMS=(2 21 26)
M  V30 END COLLECTION
M  V30 END CTAB
M  END
>  <Molecule Name>


>  <status>
-

>  <cas>
84-80-0

>  <name>
PHYTONADIONE

>  <ID>
178

>  <Smiles>
CC(C)CCC[C@H](C)CCC[C@H](C)CCC/C(/C)=C/CC(C(c1c2cccc1)=O)=C(C)C2=O

$$$$

Actelion Java MolfileCreator 2.0

  0  0  0  0  0  0              0 V3000
M  V30 BEGIN CTAB
M  V30 COUNTS 36 37 0 0 0
M  V30 BEGIN ATOM
M  V30 1 Cl 18.1865 -2.25 0.0 0
M  V30 2 C 18.1865 -0.75 0.0 0
M  V30 3 C 16.8874 0.0 0.0 0
M  V30 4 C 19.4855 0.0 0.0 0
M  V30 5 C 16.8874 1.5 0.0 0
M  V30 6 C 15.5884 -0.75 0.0 0
M  V30 7 C 19.4855 1.4999 0.0 0
M  V30 8 C 18.1865 2.2499 0.0 0
M  V30 9 N 14.2894 0.0 0.0 0 CHG=1
M  V30 10 C 12.9903 -0.75 0.0 0
M  V30 11 C 14.2894 1.5 0.0 0
M  V30 12 C 15.5884 0.7499 0.0 0
M  V30 13 C 11.6913 0.0 0.0 0
M  V30 14 C 12.9903 2.25 0.0 0
M  V30 15 C 15.5884 2.2499 0.0 0
M  V30 16 N 10.3923 -0.75 0.0 0
M  V30 17 C 9.0932 0.0 0.0 0
M  V30 18 O 9.0932 1.5 0.0 0
M  V30 19 C 7.7942 -0.75 0.0 0
M  V30 20 O 7.7942 -2.25 0.0 0
M  V30 21 N 6.4951 0.0 0.0 0
M  V30 22 C 5.1961 -0.75 0.0 0
M  V30 23 C 3.8971 0.0 0.0 0
M  V30 24 N 2.598 -0.75 0.0 0 CHG=1
M  V30 25 C 2.598 -2.25 0.0 0
M  V30 26 C 3.8971 -1.5 0.0 0
M  V30 27 C 1.299 0.0 0.0 0
M  V30 28 C 1.299 -3.0 0.0 0
M  V30 29 C 3.8971 -3.0 0.0 0
M  V30 30 C 0.0 -0.75 0.0 0
M  V30 31 C 1.299 -4.5 0.0 0
M  V30 32 C 0.0 -2.25 0.0 0
M  V30 33 Cl 2.598 -5.25 0.0 0
M  V30 34 C 0.0 -5.25 0.0 0
M  V30 35 C -1.299 -3.0 0.0 0
M  V30 36 C -1.299 -4.5 0.0 0
M  V30 END ATOM
M  V30 BEGIN BOND
M  V30 1 1 1 2
M  V30 2 2 2 3
M  V30 3 1 2 4
M  V30 4 1 3 5
M  V30 5 1 3 6
M  V30 6 2 4 7
M  V30 7 2 5 8
M  V30 8 1 6 9
M  V30 9 1 9 10
M  V30 10 1 9 11
M  V30 11 1 9 12
M  V30 12 1 10 13
M  V30 13 1 11 14
M  V30 14 1 12 15
M  V30 15 1 13 16
M  V30 16 1 16 17
M  V30 17 2 17 18
M  V30 18 1 17 19
M  V30 19 2 19 20
M  V30 20 1 19 21
M  V30 21 1 21 22
M  V30 22 1 22 23
M  V30 23 1 23 24
M  V30 24 1 24 25
M  V30 25 1 24 26
M  V30 26 1 24 27
M  V30 27 1 25 28
M  V30 28 1 26 29
M  V30 29 1 27 30
M  V30 30 2 28 31
M  V30 31 1 28 32
M  V30 32 1 31 33
M  V30 33 1 31 34
M  V30 34 2 32 35
M  V30 35 2 34 36
M  V30 36 1 7 8
M  V30 37 1 35 36
M  V30 END BOND
M  V30 END CTAB
M  END
>  <Molecule Name>


>  <status>
DISCONTINUED

>  <cas>
7648-98-8

>  <name>
AMBENONIUM

>  <ID>
179

>  <Smiles>
CC[N+](CC)(CCNC(C(NCC[N+](CC)(CC)Cc(cccc1)c1Cl)=O)=O)Cc(cccc1)c1Cl

$$$$

Actelion Java MolfileCreator 2.0

  0  0  0  0  0  0              0 V3000
M  V30 BEGIN CTAB
M  V30 COUNTS 17 18 0 0 0
M  V30 BEGIN ATOM
M  V30 1 O 1.732 -1.5 0.0 0
M  V30 2 C 1.732 -0.5 0.0 0
M  V30 3 O 2.598 0.0 0.0 0
M  V30 4 C 0.866 0.0 0.0 0 CFG=1
M  V30 5 C 3.4641 -0.5 0.0 0
M  V30 6 C 0.866 1.0 0.0 0
M  V30 7 C 0.0 -0.5 0.0 0 CFG=1
M  V30 8 C 1.732 1.4999 0.0 0
M  V30 9 C 0.0 1.4999 0.0 0
M  V30 10 N -0.866 0.0 0.0 0
M  V30 11 C 0.0 -1.4999 0.0 0
M  V30 12 C 1.732 2.5 0.0 0
M  V30 13 C 0.0 2.5 0.0 0
M  V30 14 C -1.732 -0.4999 0.0 0
M  V30 15 C -0.866 -1.9999 0.0 0
M  V30 16 C 0.866 3.0 0.0 0
M  V30 17 C -1.732 -1.4999 0.0 0
M  V30 END ATOM
M  V30 BEGIN BOND
M  V30 1 2 1 2
M  V30 2 1 2 3
M  V30 3 1 4 2 CFG=3
M  V30 4 1 3 5
M  V30 5 1 4 6
M  V30 6 1 7 4
M  V30 7 2 6 8
M  V30 8 1 6 9
M  V30 9 1 7 10 CFG=3
M  V30 10 1 7 11
M  V30 11 1 8 12
M  V30 12 2 9 13
M  V30 13 1 10 14
M  V30 14 1 11 15
M  V30 15 2 12 16
M  V30 16 1 14 17
M  V30 17 1 13 16
M  V30 18 1 15 17
M  V30 END BOND
M  V30 BEGIN COLLECTION
M  V30 MDLV30/STERAC1 ATOMS=(2 4 7)
M  V30 END COLLECTION
M  V30 END CTAB
M  END
>  <Molecule Name>


>  <status>
-

>  <cas>
1037510-61-4

>  <name>
METHYLPHENIDATE

>  <ID>
180

>  <Smiles>
COC([C@H]([C@H]1NCCCC1)c1ccccc1)=O

$$$$

Actelion Java MolfileCreator 2.0

  0  0  0  0  0  0              0 V3000
M  V30 BEGIN CTAB
M  V30 COUNTS 12 13 0 0 0
M  V30 BEGIN ATOM
M  V30 1 N 0.866 0.0 0.0 0
M  V30 2 C 0.0 -0.5 0.0 0 CFG=2
M  V30 3 C 1.732 -0.5 0.0 0
M  V30 4 C -0.9135 -0.0932 0.0 0
M  V30 5 C -0.1045 -1.4945 0.0 0 CFG=2
M  V30 6 C 0.8386 -1.0446 0.0 0
M  V30 7 C -1.5826 -0.8364 0.0 0 CFG=1
M  V30 8 C -0.6045 0.8577 0.0 0
M  V30 9 C -1.5826 0.6498 0.0 0
M  V30 10 C -1.0826 -1.7024 0.0 0
M  V30 11 C -0.933 -2.5956 0.0 0
M  V30 12 C -1.8465 -2.1889 0.0 0
M  V30 END ATOM
M  V30 BEGIN BOND
M  V30 1 1 2 1 CFG=1
M  V30 2 1 1 3
M  V30 3 1 2 4
M  V30 4 1 5 2
M  V30 5 1 2 6
M  V30 6 1 7 4
M  V30 7 1 4 8
M  V30 8 1 4 9
M  V30 9 1 5 10 CFG=3
M  V30 10 1 5 11
M  V30 11 1 7 12 CFG=1
M  V30 12 1 7 10
M  V30 13 1 11 12
M  V30 END BOND
M  V30 BEGIN COLLECTION
M  V30 MDLV30/STERAC1 ATOMS=(3 2 5 7)
M  V30 END COLLECTION
M  V30 END CTAB
M  END
>  <Molecule Name>


>  <status>
-

>  <cas>
60-40-2

>  <name>
MECAMYLAMINE

>  <ID>
181

>  <Smiles>
CC(C)([C@H]1C[C@@H]2CC1)[C@@]2(C)NC

$$$$

Actelion Java MolfileCreator 2.0

  0  0  0  0  0  0              0 V3000
M  V30 BEGIN CTAB
M  V30 COUNTS 31 34 0 0 0
M  V30 BEGIN ATOM
M  V30 1 O -2.9415 -10.8146 0.0 0
M  V30 2 C -2.4774 -9.3863 0.0 0
M  V30 3 C -3.4824 -8.2702 0.0 0
M  V30 4 C -1.0084 -9.074 0.0 0
M  V30 5 C -3.0183 -6.8418 0.0 0
M  V30 6 C -0.5443 -7.6457 0.0 0
M  V30 7 C -1.5492 -6.5296 0.0 0 CFG=1
M  V30 8 C -4.0232 -5.7257 0.0 0
M  V30 9 C -1.0851 -5.1012 0.0 0 CFG=1
M  V30 10 C -0.0802 -6.2173 0.0 0
M  V30 11 C -3.5591 -4.2974 0.0 0
M  V30 12 C -2.0901 -3.9851 0.0 0 CFG=2
M  V30 13 C 0.3838 -4.789 0.0 0
M  V30 14 C -1.626 -2.5568 0.0 0 CFG=2
M  V30 15 C 0.79 -3.4114 0.0 0
M  V30 16 C -0.1569 -2.2445 0.0 0 CFG=1
M  V30 17 C -2.3769 -1.2561 0.0 0
M  V30 18 C 0.0 -0.7509 0.0 0 CFG=2
M  V30 19 C 1.4054 -1.9565 0.0 0
M  V30 20 C -1.372 -0.14 0.0 0
M  V30 21 O 1.3006 0.0 0.0 0
M  V30 22 C 1.2284 -1.4001 0.0 0
M  V30 23 C 1.3006 1.5018 0.0 0
M  V30 24 O 1.2967 -2.9671 0.0 0
M  V30 25 C 2.5977 -0.887 0.0 0
M  V30 26 O 0.0 2.2527 0.0 0
M  V30 27 C 2.6012 2.2527 0.0 0
M  V30 28 C 2.6012 3.7546 0.0 0
M  V30 29 C 3.9019 4.5055 0.0 0
M  V30 30 C 3.9019 6.0074 0.0 0
M  V30 31 C 5.2025 6.7583 0.0 0
M  V30 END ATOM
M  V30 BEGIN BOND
M  V30 1 2 1 2
M  V30 2 1 2 3
M  V30 3 1 2 4
M  V30 4 2 3 5
M  V30 5 1 4 6
M  V30 6 1 7 5
M  V30 7 1 5 8
M  V30 8 1 9 7
M  V30 9 1 7 10 CFG=1
M  V30 10 1 8 11
M  V30 11 1 12 9
M  V30 12 1 9 13 CFG=1
M  V30 13 1 14 12
M  V30 14 1 13 15
M  V30 15 1 16 14
M  V30 16 1 14 17 CFG=1
M  V30 17 1 18 16
M  V30 18 1 16 19 CFG=1
M  V30 19 1 17 20
M  V30 20 1 18 21
M  V30 21 1 18 22 CFG=1
M  V30 22 1 21 23
M  V30 23 2 22 24
M  V30 24 1 22 25
M  V30 25 2 23 26
M  V30 26 1 23 27
M  V30 27 1 27 28
M  V30 28 1 28 29
M  V30 29 1 29 30
M  V30 30 1 30 31
M  V30 31 1 6 7
M  V30 32 1 12 11 CFG=3
M  V30 33 1 15 16
M  V30 34 1 18 20
M  V30 END BOND
M  V30 BEGIN COLLECTION
M  V30 MDLV30/STERAC1 ATOMS=(6 7 9 12 14 16 18)
M  V30 END COLLECTION
M  V30 END CTAB
M  END
>  <Molecule Name>


>  <status>
-

>  <cas>
630-56-8

>  <name>
HYDROXYPROGESTERONE CAPROATE

>  <ID>
182

>  <Smiles>
CCCCCC(O[C@@](CC1)([C@](C)(CC2)[C@H]1[C@@H](CC1)[C@@H]2[C@](C)(CC2)C1=CC2=O)C(C)=O)=O

$$$$

Actelion Java MolfileCreator 2.0

  0  0  0  0  0  0              0 V3000
M  V30 BEGIN CTAB
M  V30 COUNTS 20 22 0 0 0
M  V30 BEGIN ATOM
M  V30 1 S 6.0621 0.9999 0.0 0
M  V30 2 C 5.1961 1.4999 0.0 0
M  V30 3 C 6.0621 0.0 0.0 0
M  V30 4 C 4.3301 0.9999 0.0 0
M  V30 5 C 5.1961 2.4999 0.0 0
M  V30 6 C 5.1961 -0.5 0.0 0
M  V30 7 C 6.9282 -0.4999 0.0 0
M  V30 8 N 4.3301 0.0 0.0 0
M  V30 9 C 3.4641 1.5 0.0 0
M  V30 10 C 4.3301 2.9999 0.0 0
M  V30 11 C 5.1961 -1.5 0.0 0
M  V30 12 C 6.9282 -1.4999 0.0 0
M  V30 13 C 3.4641 -0.5 0.0 0
M  V30 14 C 3.4641 2.5 0.0 0
M  V30 15 C 6.0621 -1.9999 0.0 0
M  V30 16 C 2.598 0.0 0.0 0
M  V30 17 C 1.732 -0.5 0.0 0
M  V30 18 N 0.866 0.0 0.0 0
M  V30 19 C 0.866 1.0 0.0 0
M  V30 20 C 0.0 -0.5 0.0 0
M  V30 END ATOM
M  V30 BEGIN BOND
M  V30 1 1 1 2
M  V30 2 1 1 3
M  V30 3 2 2 4
M  V30 4 1 2 5
M  V30 5 2 3 6
M  V30 6 1 3 7
M  V30 7 1 4 8
M  V30 8 1 4 9
M  V30 9 2 5 10
M  V30 10 1 6 11
M  V30 11 2 7 12
M  V30 12 1 8 13
M  V30 13 2 9 14
M  V30 14 2 11 15
M  V30 15 1 13 16
M  V30 16 1 16 17
M  V30 17 1 17 18
M  V30 18 1 18 19
M  V30 19 1 18 20
M  V30 20 1 6 8
M  V30 21 1 10 14
M  V30 22 1 12 15
M  V30 END BOND
M  V30 END CTAB
M  END
>  <Molecule Name>


>  <status>
DISCONTINUED

>  <cas>
58-40-2

>  <name>
PROMAZINE

>  <ID>
183

>  <Smiles>
CN(C)CCCN1c(cccc2)c2Sc2c1cccc2

$$$$

Actelion Java MolfileCreator 2.0

  0  0  0  0  0  0              0 V3000
M  V30 BEGIN CTAB
M  V30 COUNTS 26 29 0 0 0
M  V30 BEGIN ATOM
M  V30 1 O 2.598 0.0 0.0 0
M  V30 2 C 1.732 -0.5 0.0 0
M  V30 3 O 1.8392 -1.4356 0.0 0
M  V30 4 C 0.866 0.0 0.0 0
M  V30 5 C 2.598 -1.9999 0.0 0 CFG=2
M  V30 6 O 0.866 1.0 0.0 0
M  V30 7 C 0.866 -1.0 0.0 0
M  V30 8 C 0.0 -0.5 0.0 0
M  V30 9 C 3.4641 -1.4999 0.0 0 CFG=2
M  V30 10 C 2.598 -2.9999 0.0 0
M  V30 11 C 0.1279 -1.507 0.0 0
M  V30 12 C 1.5176 -1.6286 0.0 0
M  V30 13 C -0.866 0.0 0.0 0
M  V30 14 C -0.2454 -1.5334 0.0 0
M  V30 15 C 4.294 -2.1248 0.0 0
M  V30 16 C 5.1961 -1.9999 0.0 0
M  V30 17 N 3.4641 -3.4999 0.0 0 CHG=1 CFG=1
M  V30 18 C 0.0 -2.4999 0.0 0
M  V30 19 C 1.732 -2.5 0.0 0
M  V30 20 C -1.732 -0.4999 0.0 0
M  V30 21 C -0.866 -1.9999 0.0 0
M  V30 22 C 4.294 -2.8751 0.0 0
M  V30 23 C 5.1961 -2.9999 0.0 0
M  V30 24 C 3.3431 -4.4926 0.0 0
M  V30 25 C 0.866 -3.0 0.0 0
M  V30 26 C -1.732 -1.4999 0.0 0
M  V30 END ATOM
M  V30 BEGIN BOND
M  V30 1 2 1 2
M  V30 2 1 2 3
M  V30 3 1 2 4
M  V30 4 1 5 3 CFG=3
M  V30 5 1 4 6
M  V30 6 1 4 7
M  V30 7 1 4 8
M  V30 8 1 9 5
M  V30 9 1 5 10
M  V30 10 2 7 11
M  V30 11 1 7 12
M  V30 12 2 8 13
M  V30 13 1 8 14
M  V30 14 1 9 15 CFG=3
M  V30 15 1 9 16
M  V30 16 1 17 10
M  V30 17 1 11 18
M  V30 18 2 12 19
M  V30 19 1 13 20
M  V30 20 2 14 21
M  V30 21 1 15 22
M  V30 22 1 16 23
M  V30 23 1 17 24 CFG=3
M  V30 24 2 18 25
M  V30 25 2 20 26
M  V30 26 1 17 22
M  V30 27 1 17 23
M  V30 28 1 19 25
M  V30 29 1 21 26
M  V30 END BOND
M  V30 BEGIN COLLECTION
M  V30 MDLV30/STEABS ATOMS=(2 9 17)
M  V30 MDLV30/STERAC1 ATOMS=(1 5)
M  V30 END COLLECTION
M  V30 END CTAB
M  END
>  <Molecule Name>


>  <status>
-

>  <cas>
3485-62-9

>  <name>
CLIDINIUM

>  <ID>
184

>  <Smiles>
C[N@+]1(CC[C@H]2CC1)CC2OC(C(c1ccccc1)(c1ccccc1)O)=O

$$$$

Actelion Java MolfileCreator 2.0

  0  0  0  0  0  0              0 V3000
M  V30 BEGIN CTAB
M  V30 COUNTS 23 24 0 0 0
M  V30 BEGIN ATOM
M  V30 1 I 4.3301 -2.9999 0.0 0
M  V30 2 C 4.3301 -1.9999 0.0 0
M  V30 3 C 5.1961 -1.5 0.0 0
M  V30 4 C 3.4641 -1.5 0.0 0
M  V30 5 O 6.0621 -2.0 0.0 0
M  V30 6 C 5.1961 -0.5 0.0 0
M  V30 7 C 3.4641 -0.5 0.0 0
M  V30 8 C 6.9282 -1.5 0.0 0
M  V30 9 I 6.0621 0.0 0.0 0
M  V30 10 C 4.3301 0.0 0.0 0
M  V30 11 C 2.598 0.0 0.0 0
M  V30 12 C 7.7942 -2.0 0.0 0
M  V30 13 C 6.9282 -0.5 0.0 0
M  V30 14 C 1.732 -0.5 0.0 0 CFG=2
M  V30 15 C 8.6602 -1.5 0.0 0
M  V30 16 C 7.7942 0.0 0.0 0
M  V30 17 N 1.732 -1.5 0.0 0
M  V30 18 C 0.866 0.0 0.0 0
M  V30 19 I 9.5262 -2.0 0.0 0
M  V30 20 C 8.6602 -0.5 0.0 0
M  V30 21 O 0.866 1.0 0.0 0
M  V30 22 O 0.0 -0.5 0.0 0 CHG=-1
M  V30 23 O 9.5262 0.0 0.0 0
M  V30 END ATOM
M  V30 BEGIN BOND
M  V30 1 1 1 2
M  V30 2 2 2 3
M  V30 3 1 2 4
M  V30 4 1 3 5
M  V30 5 1 3 6
M  V30 6 2 4 7
M  V30 7 1 5 8
M  V30 8 1 6 9
M  V30 9 2 6 10
M  V30 10 1 7 11
M  V30 11 2 8 12
M  V30 12 1 8 13
M  V30 13 1 14 11
M  V30 14 1 12 15
M  V30 15 2 13 16
M  V30 16 1 14 17 CFG=3
M  V30 17 1 14 18
M  V30 18 1 15 19
M  V30 19 2 15 20
M  V30 20 2 18 21
M  V30 21 1 18 22
M  V30 22 1 20 23
M  V30 23 1 7 10
M  V30 24 1 16 20
M  V30 END BOND
M  V30 BEGIN COLLECTION
M  V30 MDLV30/STERAC1 ATOMS=(1 14)
M  V30 END COLLECTION
M  V30 END CTAB
M  END
>  <Molecule Name>


>  <status>
-

>  <cas>
6893-02-3

>  <name>
LIOTHYRONINE

>  <ID>
185

>  <Smiles>
NC(Cc(cc1I)cc(I)c1Oc(cc1)cc(I)c1O)C([O-])=O

$$$$

Actelion Java MolfileCreator 2.0

  0  0  0  0  0  0              0 V3000
M  V30 BEGIN CTAB
M  V30 COUNTS 26 28 0 0 0
M  V30 BEGIN ATOM
M  V30 1 Cl 11.2583 0.0 0.0 0
M  V30 2 C 10.3923 -0.5 0.0 0
M  V30 3 C 9.5262 0.0 0.0 0
M  V30 4 C 10.3923 -1.5 0.0 0
M  V30 5 C 8.6602 -0.5 0.0 0
M  V30 6 C 9.5262 -2.0 0.0 0
M  V30 7 C 8.6602 -1.5 0.0 0
M  V30 8 C 7.7942 -2.0 0.0 0 CFG=1
M  V30 9 N 6.9282 -1.5 0.0 0
M  V30 10 C 7.7942 -3.0 0.0 0
M  V30 11 C 6.9282 -0.5 0.0 0
M  V30 12 C 6.0621 -2.0 0.0 0
M  V30 13 C 6.9282 -3.4999 0.0 0
M  V30 14 C 8.6602 -3.5 0.0 0
M  V30 15 C 6.0621 0.0 0.0 0
M  V30 16 C 5.1961 -1.5 0.0 0
M  V30 17 C 6.9282 -4.5 0.0 0
M  V30 18 C 8.6602 -4.5 0.0 0
M  V30 19 N 5.1961 -0.5 0.0 0
M  V30 20 C 7.7942 -5.0 0.0 0
M  V30 21 C 4.3301 0.0 0.0 0
M  V30 22 C 3.4641 -0.5 0.0 0
M  V30 23 O 2.598 0.0 0.0 0
M  V30 24 C 1.732 -0.5 0.0 0
M  V30 25 C 0.866 0.0 0.0 0
M  V30 26 O 0.0 -0.5 0.0 0
M  V30 END ATOM
M  V30 BEGIN BOND
M  V30 1 1 1 2
M  V30 2 2 2 3
M  V30 3 1 2 4
M  V30 4 1 3 5
M  V30 5 2 4 6
M  V30 6 2 5 7
M  V30 7 1 8 7
M  V30 8 1 8 9 CFG=3
M  V30 9 1 8 10
M  V30 10 1 9 11
M  V30 11 1 9 12
M  V30 12 2 10 13
M  V30 13 1 10 14
M  V30 14 1 11 15
M  V30 15 1 12 16
M  V30 16 1 13 17
M  V30 17 2 14 18
M  V30 18 1 15 19
M  V30 19 2 17 20
M  V30 20 1 19 21
M  V30 21 1 21 22
M  V30 22 1 22 23
M  V30 23 1 23 24
M  V30 24 1 24 25
M  V30 25 1 25 26
M  V30 26 1 6 7
M  V30 27 1 16 19
M  V30 28 1 18 20
M  V30 END BOND
M  V30 BEGIN COLLECTION
M  V30 MDLV30/STERAC1 ATOMS=(1 8)
M  V30 END COLLECTION
M  V30 END CTAB
M  END
>  <Molecule Name>


>  <status>
-

>  <cas>
68-88-2

>  <name>
HYDROXYZINE

>  <ID>
186

>  <Smiles>
OCCOCCN(CC1)CCN1C(c1ccccc1)c(cc1)ccc1Cl

$$$$

Actelion Java MolfileCreator 2.0

  0  0  0  0  0  0              0 V3000
M  V30 BEGIN CTAB
M  V30 COUNTS 15 16 0 0 0
M  V30 BEGIN ATOM
M  V30 1 O 0.866 0.0 0.0 0
M  V30 2 C 0.0 -0.5 0.0 0
M  V30 3 N -0.9135 -0.0932 0.0 0
M  V30 4 C -0.1045 -1.4945 0.0 0 CFG=1
M  V30 5 C -1.5826 -0.8364 0.0 0
M  V30 6 C -1.1214 0.8848 0.0 0
M  V30 7 C 0.6386 -2.1636 0.0 0
M  V30 8 C -1.0826 -1.7024 0.0 0
M  V30 9 C -0.3633 -2.4604 0.0 0
M  V30 10 O -2.5771 -0.7318 0.0 0
M  V30 11 C 0.4307 -3.1418 0.0 0
M  V30 12 C 1.5896 -1.8546 0.0 0
M  V30 13 C 1.1738 -3.8109 0.0 0
M  V30 14 C 2.3328 -2.5237 0.0 0
M  V30 15 C 2.1249 -3.5019 0.0 0
M  V30 END ATOM
M  V30 BEGIN BOND
M  V30 1 2 1 2
M  V30 2 1 2 3
M  V30 3 1 4 2
M  V30 4 1 3 5
M  V30 5 1 3 6
M  V30 6 1 4 7
M  V30 7 1 4 8
M  V30 8 1 4 9 CFG=3
M  V30 9 2 5 10
M  V30 10 2 7 11
M  V30 11 1 7 12
M  V30 12 1 11 13
M  V30 13 2 12 14
M  V30 14 2 13 15
M  V30 15 1 5 8
M  V30 16 1 14 15
M  V30 END BOND
M  V30 BEGIN COLLECTION
M  V30 MDLV30/STERAC1 ATOMS=(1 4)
M  V30 END COLLECTION
M  V30 END CTAB
M  END
>  <Molecule Name>


>  <status>
-

>  <cas>
39122-23-1

>  <name>
METHSUXIMIDE

>  <ID>
187

>  <Smiles>
CC(CC(N1C)=O)(C1=O)c1ccccc1

$$$$

Actelion Java MolfileCreator 2.0

  0  0  0  0  0  0              0 V3000
M  V30 BEGIN CTAB
M  V30 COUNTS 21 24 0 0 0
M  V30 BEGIN ATOM
M  V30 1 O 8.0829 0.8333 0.0 0
M  V30 2 C 7.2168 0.3333 0.0 0
M  V30 3 C 6.3508 0.8333 0.0 0
M  V30 4 C 7.2168 -0.6666 0.0 0
M  V30 5 C 5.4848 0.3333 0.0 0
M  V30 6 C 6.3508 -1.1666 0.0 0
M  V30 7 C 5.4848 -0.6666 0.0 0
M  V30 8 C 4.6188 0.8333 0.0 0 CFG=2
M  V30 9 C 4.6188 -1.1666 0.0 0
M  V30 10 C 3.7527 0.3333 0.0 0 CFG=1
M  V30 11 C 3.4641 1.4999 0.0 0
M  V30 12 C 4.6188 1.8333 0.0 0
M  V30 13 C 3.7527 -0.6666 0.0 0 CFG=1
M  V30 14 C 2.9492 0.7667 0.0 0
M  V30 15 C 2.541 1.0084 0.0 0
M  V30 16 C 3.7527 2.3333 0.0 0
M  V30 17 N 2.598 0.0 0.0 0
M  V30 18 C 2.8867 1.8333 0.0 0
M  V30 19 C 1.732 -0.5 0.0 0
M  V30 20 C 0.866 0.0 0.0 0
M  V30 21 C 0.0 -0.5 0.0 0
M  V30 END ATOM
M  V30 BEGIN BOND
M  V30 1 1 1 2
M  V30 2 2 2 3
M  V30 3 1 2 4
M  V30 4 1 3 5
M  V30 5 2 4 6
M  V30 6 2 5 7
M  V30 7 1 8 5
M  V30 8 1 7 9
M  V30 9 1 10 8
M  V30 10 1 8 11 CFG=3
M  V30 11 1 8 12
M  V30 12 1 13 9
M  V30 13 1 10 14 CFG=1
M  V30 14 1 11 15
M  V30 15 1 12 16
M  V30 16 1 13 17 CFG=3
M  V30 17 1 14 18
M  V30 18 1 17 19
M  V30 19 1 19 20
M  V30 20 2 20 21
M  V30 21 1 6 7
M  V30 22 1 10 13
M  V30 23 1 15 17
M  V30 24 1 16 18
M  V30 END BOND
M  V30 BEGIN COLLECTION
M  V30 MDLV30/STERAC1 ATOMS=(3 8 10 13)
M  V30 END COLLECTION
M  V30 END CTAB
M  END
>  <Molecule Name>


>  <status>
DISCONTINUED

>  <cas>
152-02-3

>  <name>
LEVALLORPHAN

>  <ID>
188

>  <Smiles>
C=CCN(CC1)[C@@H](C2)[C@@H](CCCC3)[C@@]13c1c2ccc(O)c1

$$$$

Actelion Java MolfileCreator 2.0

  0  0  0  0  0  0              0 V3000
M  V30 BEGIN CTAB
M  V30 COUNTS 13 14 0 0 0
M  V30 BEGIN ATOM
M  V30 1 O 1.299 1.5 0.0 0
M  V30 2 C 1.299 0.0 0.0 0 CFG=2
M  V30 3 C 2.598 2.2499 0.0 0
M  V30 4 C 0.0 -0.75 0.0 0
M  V30 5 C 2.598 -0.75 0.0 0 CFG=2
M  V30 6 C 3.8971 1.4999 0.0 0
M  V30 7 C -1.299 0.0 0.0 0
M  V30 8 C 0.0 -2.25 0.0 0
M  V30 9 N 3.8971 0.0 0.0 0
M  V30 10 C 2.598 -2.25 0.0 0
M  V30 11 C -2.598 -0.7499 0.0 0
M  V30 12 C -1.299 -2.9999 0.0 0
M  V30 13 C -2.598 -2.2499 0.0 0
M  V30 END ATOM
M  V30 BEGIN BOND
M  V30 1 1 2 1
M  V30 2 1 1 3
M  V30 3 1 2 4 CFG=1
M  V30 4 1 5 2
M  V30 5 1 3 6
M  V30 6 2 4 7
M  V30 7 1 4 8
M  V30 8 1 5 9
M  V30 9 1 5 10 CFG=3
M  V30 10 1 7 11
M  V30 11 2 8 12
M  V30 12 2 11 13
M  V30 13 1 6 9
M  V30 14 1 12 13
M  V30 END BOND
M  V30 BEGIN COLLECTION
M  V30 MDLV30/STERAC1 ATOMS=(2 2 5)
M  V30 END COLLECTION
M  V30 END CTAB
M  END
>  <Molecule Name>


>  <status>
DISCONTINUED

>  <cas>
134-49-6

>  <name>
PHENMETRAZINE

>  <ID>
189

>  <Smiles>
C[C@H]1NCCO[C@@H]1c1ccccc1

$$$$

Actelion Java MolfileCreator 2.0

  0  0  0  0  0  0              0 V3000
M  V30 BEGIN CTAB
M  V30 COUNTS 26 28 0 0 0
M  V30 BEGIN ATOM
M  V30 1 O 5.0542 -1.0949 0.0 0
M  V30 2 C 3.9051 0.0 0.0 0
M  V30 3 O 2.6034 -0.7515 0.0 0
M  V30 4 C 3.9051 1.5031 0.0 0
M  V30 5 C 1.3017 0.0 0.0 0
M  V30 6 C 5.2069 0.7515 0.0 0
M  V30 7 C 5.2069 2.2546 0.0 0
M  V30 8 C 2.6034 2.2546 0.0 0
M  V30 9 C 0.0 -0.7515 0.0 0
M  V30 10 C 5.344 -0.6076 0.0 0
M  V30 11 C 6.5086 1.5031 0.0 0
M  V30 12 C 5.2069 3.7577 0.0 0
M  V30 13 C 2.6034 3.7577 0.0 0
M  V30 14 C 6.5086 -1.5031 0.0 0
M  V30 15 C 7.8103 0.7515 0.0 0
M  V30 16 N 3.9051 4.5093 0.0 0
M  V30 17 C 7.8103 -0.7515 0.0 0
M  V30 18 C 3.9051 6.0124 0.0 0
M  V30 19 C 5.2069 6.7639 0.0 0
M  V30 20 C 5.2069 8.267 0.0 0
M  V30 21 C 6.5086 9.0186 0.0 0
M  V30 22 C 3.9051 9.0186 0.0 0
M  V30 23 C 6.5086 10.5217 0.0 0
M  V30 24 C 3.9051 10.5217 0.0 0
M  V30 25 C 5.2069 11.2732 0.0 0
M  V30 26 N 5.2069 12.7763 0.0 0
M  V30 END ATOM
M  V30 BEGIN BOND
M  V30 1 2 1 2
M  V30 2 1 2 3
M  V30 3 1 2 4
M  V30 4 1 3 5
M  V30 5 1 4 6
M  V30 6 1 4 7
M  V30 7 1 4 8
M  V30 8 1 5 9
M  V30 9 2 6 10
M  V30 10 1 6 11
M  V30 11 1 7 12
M  V30 12 1 8 13
M  V30 13 1 10 14
M  V30 14 2 11 15
M  V30 15 1 12 16
M  V30 16 2 14 17
M  V30 17 1 16 18
M  V30 18 1 18 19
M  V30 19 1 19 20
M  V30 20 2 20 21
M  V30 21 1 20 22
M  V30 22 1 21 23
M  V30 23 2 22 24
M  V30 24 2 23 25
M  V30 25 1 25 26
M  V30 26 1 13 16
M  V30 27 1 15 17
M  V30 28 1 24 25
M  V30 END BOND
M  V30 END CTAB
M  END
>  <Molecule Name>


>  <status>
DISCONTINUED

>  <cas>
144-14-9

>  <name>
ANILERIDINE

>  <ID>
190

>  <Smiles>
CCOC(C1(CCN(CCc(cc2)ccc2N)CC1)c1ccccc1)=O

$$$$

Actelion Java MolfileCreator 2.0

  0  0  0  0  0  0              0 V3000
M  V30 BEGIN CTAB
M  V30 COUNTS 34 37 0 0 0
M  V30 BEGIN ATOM
M  V30 1 O 1.8632 9.0978 0.0 0
M  V30 2 C 2.87 7.9797 0.0 0
M  V30 3 C 4.3417 8.2925 0.0 0
M  V30 4 C 2.4051 6.5487 0.0 0
M  V30 5 C 5.3485 7.1744 0.0 0
M  V30 6 C 3.4118 5.4306 0.0 0
M  V30 7 C 4.8836 5.7434 0.0 0 CFG=1
M  V30 8 C 6.8203 7.4872 0.0 0
M  V30 9 C 5.8904 4.6252 0.0 0 CFG=2
M  V30 10 C 4.4186 4.3124 0.0 0
M  V30 11 C 7.827 6.369 0.0 0
M  V30 12 C 5.4254 3.1943 0.0 0 CFG=2
M  V30 13 C 7.3621 4.9381 0.0 0 CFG=2
M  V30 14 O 3.9537 2.8814 0.0 0
M  V30 15 C 6.4322 2.0761 0.0 0
M  V30 16 C 8.3689 3.8199 0.0 0 CFG=2
M  V30 17 C 7.9039 2.389 0.0 0 CFG=2
M  V30 18 C 9.8735 3.8199 0.0 0
M  V30 19 C 9.1212 1.5046 0.0 0 CFG=2
M  V30 20 C 7.4706 0.9781 0.0 0
M  V30 21 C 10.3384 2.389 0.0 0
M  V30 22 O 8.0215 0.6997 0.0 0
M  V30 23 C 9.1212 0.0 0.0 0
M  V30 24 O 10.4242 -0.7523 0.0 0
M  V30 25 C 7.8181 -0.7523 0.0 0
M  V30 26 O 6.5151 0.0 0.0 0
M  V30 27 C 5.2121 -0.7523 0.0 0
M  V30 28 O 5.2121 -2.2569 0.0 0
M  V30 29 C 3.909 0.0 0.0 0
M  V30 30 N 2.606 -0.7523 0.0 0
M  V30 31 C 2.606 -2.2569 0.0 0
M  V30 32 C 1.303 0.0 0.0 0
M  V30 33 C 3.909 -3.0092 0.0 0
M  V30 34 C 0.0 -0.7523 0.0 0
M  V30 END ATOM
M  V30 BEGIN BOND
M  V30 1 2 1 2
M  V30 2 1 2 3
M  V30 3 1 2 4
M  V30 4 2 3 5
M  V30 5 1 4 6
M  V30 6 1 7 5
M  V30 7 1 5 8
M  V30 8 1 9 7
M  V30 9 1 7 10 CFG=1
M  V30 10 1 8 11
M  V30 11 1 9 12 CFG=1
M  V30 12 1 13 9
M  V30 13 1 12 14 CFG=1
M  V30 14 1 12 15
M  V30 15 1 16 13
M  V30 16 1 17 15
M  V30 17 1 16 18 CFG=1
M  V30 18 1 19 17
M  V30 19 1 17 20 CFG=1
M  V30 20 1 18 21
M  V30 21 1 19 22 CFG=3
M  V30 22 1 19 23
M  V30 23 2 23 24
M  V30 24 1 23 25
M  V30 25 1 25 26
M  V30 26 1 26 27
M  V30 27 2 27 28
M  V30 28 1 27 29
M  V30 29 1 29 30
M  V30 30 1 30 31
M  V30 31 1 30 32
M  V30 32 1 31 33
M  V30 33 1 32 34
M  V30 34 1 6 7
M  V30 35 1 13 11 CFG=3
M  V30 36 1 16 17
M  V30 37 1 19 21
M  V30 END BOND
M  V30 BEGIN COLLECTION
M  V30 MDLV30/STERAC1 ATOMS=(7 7 9 12 13 16 17 19)
M  V30 END COLLECTION
M  V30 END CTAB
M  END
>  <Molecule Name>


>  <status>
DISCONTINUED

>  <cas>
76-47-1

>  <name>
HYDROCORTAMATE

>  <ID>
191

>  <Smiles>
CCN(CC)CC(OCC([C@](CC1)([C@](C)(C[C@H]2O)[C@H]1[C@@H](CC1)[C@@H]2[C@](C)(CC2)C1=CC2=O)O)=O)=O

$$$$

Actelion Java MolfileCreator 2.0

  0  0  0  0  0  0              0 V3000
M  V30 BEGIN CTAB
M  V30 COUNTS 25 28 0 0 0
M  V30 BEGIN ATOM
M  V30 1 Cl 5.1961 2.4999 0.0 0
M  V30 2 C 5.1961 1.4999 0.0 0
M  V30 3 C 4.3301 1.0 0.0 0
M  V30 4 C 6.0621 0.9999 0.0 0
M  V30 5 C 4.3301 0.0 0.0 0
M  V30 6 C 6.0621 0.0 0.0 0
M  V30 7 N 3.4641 -0.5 0.0 0
M  V30 8 C 5.1961 -0.5 0.0 0
M  V30 9 C 3.4641 -1.5 0.0 0
M  V30 10 C 2.598 0.0 0.0 0
M  V30 11 S 5.1961 -1.5 0.0 0
M  V30 12 C 4.3301 -2.0 0.0 0
M  V30 13 C 2.598 -1.9999 0.0 0
M  V30 14 C 1.732 -0.5 0.0 0
M  V30 15 C 4.3301 -3.0 0.0 0
M  V30 16 C 2.598 -3.0 0.0 0
M  V30 17 C 0.866 0.0 0.0 0
M  V30 18 C 3.4641 -3.4999 0.0 0
M  V30 19 N 0.0 -0.5 0.0 0
M  V30 20 C -0.866 0.0 0.0 0
M  V30 21 C 0.0 -1.4999 0.0 0
M  V30 22 C -1.732 -0.4999 0.0 0
M  V30 23 C -0.866 -1.9999 0.0 0
M  V30 24 N -1.732 -1.4999 0.0 0
M  V30 25 C -2.598 -1.9999 0.0 0
M  V30 END ATOM
M  V30 BEGIN BOND
M  V30 1 1 1 2
M  V30 2 2 2 3
M  V30 3 1 2 4
M  V30 4 1 3 5
M  V30 5 2 4 6
M  V30 6 1 5 7
M  V30 7 2 5 8
M  V30 8 1 7 9
M  V30 9 1 7 10
M  V30 10 1 8 11
M  V30 11 2 9 12
M  V30 12 1 9 13
M  V30 13 1 10 14
M  V30 14 1 12 15
M  V30 15 2 13 16
M  V30 16 1 14 17
M  V30 17 2 15 18
M  V30 18 1 17 19
M  V30 19 1 19 20
M  V30 20 1 19 21
M  V30 21 1 20 22
M  V30 22 1 21 23
M  V30 23 1 22 24
M  V30 24 1 24 25
M  V30 25 1 6 8
M  V30 26 1 11 12
M  V30 27 1 16 18
M  V30 28 1 23 24
M  V30 END BOND
M  V30 END CTAB
M  END
>  <Molecule Name>


>  <status>
-

>  <cas>
58-38-8

>  <name>
PROCHLORPERAZINE

>  <ID>
192

>  <Smiles>
CN1CCN(CCCN2c(cc(cc3)Cl)c3Sc3c2cccc3)CC1

$$$$

Actelion Java MolfileCreator 2.0

  0  0  0  0  0  0              0 V3000
M  V30 BEGIN CTAB
M  V30 COUNTS 20 21 0 0 0
M  V30 BEGIN ATOM
M  V30 1 O 3.4641 -0.5 0.0 0
M  V30 2 C 4.3301 0.0 0.0 0 CFG=2
M  V30 3 C 2.598 0.0 0.0 0
M  V30 4 C 5.1961 -0.5 0.0 0
M  V30 5 C 4.3301 1.0 0.0 0
M  V30 6 C 1.732 -0.5 0.0 0
M  V30 7 C 5.1961 -1.5 0.0 0
M  V30 8 C 6.0621 0.0 0.0 0
M  V30 9 C 5.1961 1.4999 0.0 0
M  V30 10 C 3.4641 1.5 0.0 0
M  V30 11 N 0.866 0.0 0.0 0
M  V30 12 C 6.0621 -2.0 0.0 0
M  V30 13 C 4.3301 -1.9999 0.0 0
M  V30 14 C 6.9282 -0.5 0.0 0
M  V30 15 C 5.1961 2.4999 0.0 0
M  V30 16 C 3.4641 2.5 0.0 0
M  V30 17 C 0.866 1.0 0.0 0
M  V30 18 C 0.0 -0.5 0.0 0
M  V30 19 C 6.9282 -1.5 0.0 0
M  V30 20 C 4.3301 2.9999 0.0 0
M  V30 END ATOM
M  V30 BEGIN BOND
M  V30 1 1 2 1 CFG=1
M  V30 2 1 1 3
M  V30 3 1 2 4
M  V30 4 1 2 5
M  V30 5 1 3 6
M  V30 6 2 4 7
M  V30 7 1 4 8
M  V30 8 2 5 9
M  V30 9 1 5 10
M  V30 10 1 6 11
M  V30 11 1 7 12
M  V30 12 1 7 13
M  V30 13 2 8 14
M  V30 14 1 9 15
M  V30 15 2 10 16
M  V30 16 1 11 17
M  V30 17 1 11 18
M  V30 18 2 12 19
M  V30 19 2 15 20
M  V30 20 1 14 19
M  V30 21 1 16 20
M  V30 END BOND
M  V30 BEGIN COLLECTION
M  V30 MDLV30/STERAC1 ATOMS=(1 2)
M  V30 END COLLECTION
M  V30 END CTAB
M  END
>  <Molecule Name>


>  <status>
-

>  <cas>
83-98-7

>  <name>
ORPHENADRINE

>  <ID>
193

>  <Smiles>
Cc1c(C(c2ccccc2)OCCN(C)C)cccc1

$$$$

Actelion Java MolfileCreator 2.0

  0  0  0  0  0  0              0 V3000
M  V30 BEGIN CTAB
M  V30 COUNTS 15 16 0 0 0
M  V30 BEGIN ATOM
M  V30 1 O 0.866 0.0 0.0 0
M  V30 2 C 0.0 -0.5 0.0 0
M  V30 3 N -0.9135 -0.0932 0.0 0
M  V30 4 C -0.1045 -1.4945 0.0 0 CFG=1
M  V30 5 C -1.5826 -0.8364 0.0 0
M  V30 6 C -1.1214 0.8848 0.0 0
M  V30 7 C 0.6386 -2.1636 0.0 0
M  V30 8 C -1.0826 -1.7024 0.0 0
M  V30 9 C -0.3633 -2.4604 0.0 0
M  V30 10 O -2.5771 -0.7318 0.0 0
M  V30 11 C 0.4307 -3.1418 0.0 0
M  V30 12 C 1.5896 -1.8546 0.0 0
M  V30 13 C 1.1738 -3.8109 0.0 0
M  V30 14 C 2.3328 -2.5237 0.0 0
M  V30 15 C 2.1249 -3.5019 0.0 0
M  V30 END ATOM
M  V30 BEGIN BOND
M  V30 1 2 1 2
M  V30 2 1 2 3
M  V30 3 1 4 2
M  V30 4 1 3 5
M  V30 5 1 3 6
M  V30 6 1 4 7
M  V30 7 1 4 8
M  V30 8 1 4 9 CFG=3
M  V30 9 2 5 10
M  V30 10 2 7 11
M  V30 11 1 7 12
M  V30 12 1 11 13
M  V30 13 2 12 14
M  V30 14 2 13 15
M  V30 15 1 5 8
M  V30 16 1 14 15
M  V30 END BOND
M  V30 BEGIN COLLECTION
M  V30 MDLV30/STERAC1 ATOMS=(1 4)
M  V30 END COLLECTION
M  V30 END CTAB
M  END
>  <Molecule Name>


>  <status>
-

>  <cas>
39122-22-0

>  <name>
METHSUXIMIDE

>  <ID>
194

>  <Smiles>
CC(CC(N1C)=O)(C1=O)c1ccccc1

$$$$

Actelion Java MolfileCreator 2.0

  0  0  0  0  0  0              0 V3000
M  V30 BEGIN CTAB
M  V30 COUNTS 24 27 0 0 0
M  V30 BEGIN ATOM
M  V30 1 F 0.1641 2.7972 0.0 0
M  V30 2 C 1.075 1.989 0.0 0 CFG=2
M  V30 3 C 1.1796 2.9835 0.0 0 CFG=2
M  V30 4 C 0.1615 1.5823 0.0 0 CFG=1
M  V30 5 C 1.884 1.4012 0.0 0 CFG=2
M  V30 6 C 2.0931 3.3903 0.0 0
M  V30 7 C 0.3705 3.5713 0.0 0
M  V30 8 C 0.0454 2.4591 0.0 0
M  V30 9 O -0.6474 2.17 0.0 0
M  V30 10 C 0.057 0.5877 0.0 0
M  V30 11 C 1.7795 0.4067 0.0 0 CFG=1
M  V30 12 C 2.7976 1.8079 0.0 0
M  V30 13 C 2.1976 4.3848 0.0 0
M  V30 14 C 2.9021 2.8025 0.0 0
M  V30 15 C 0.4751 4.5658 0.0 0
M  V30 16 C 0.866 0.0 0.0 0 CFG=1
M  V30 17 C 2.4487 -0.3364 0.0 0
M  V30 18 C 1.3886 4.9726 0.0 0
M  V30 19 C 0.9705 -0.9945 0.0 0 CFG=2
M  V30 20 C 0.0 -0.5 0.0 0
M  V30 21 C 1.9487 -1.2024 0.0 0
M  V30 22 O 1.4931 5.9671 0.0 0
M  V30 23 O -0.0075 -1.2024 0.0 0
M  V30 24 C 0.6615 -1.9455 0.0 0
M  V30 END ATOM
M  V30 BEGIN BOND
M  V30 1 1 2 1 CFG=1
M  V30 2 1 3 2
M  V30 3 1 4 2
M  V30 4 1 5 2
M  V30 5 1 3 6
M  V30 6 1 3 7
M  V30 7 1 3 8 CFG=3
M  V30 8 1 4 9 CFG=3
M  V30 9 1 4 10
M  V30 10 1 11 5
M  V30 11 1 5 12 CFG=1
M  V30 12 2 6 13
M  V30 13 1 6 14
M  V30 14 1 7 15
M  V30 15 1 16 10
M  V30 16 1 11 17 CFG=3
M  V30 17 1 13 18
M  V30 18 1 19 16
M  V30 19 1 16 20 CFG=3
M  V30 20 1 17 21
M  V30 21 2 18 22
M  V30 22 1 19 23 CFG=3
M  V30 23 1 19 24
M  V30 24 1 11 16
M  V30 25 1 12 14
M  V30 26 1 15 18
M  V30 27 1 19 21
M  V30 END BOND
M  V30 BEGIN COLLECTION
M  V30 MDLV30/STERAC1 ATOMS=(7 2 3 4 5 11 16 19)
M  V30 END COLLECTION
M  V30 END CTAB
M  END
>  <Molecule Name>


>  <status>
DISCONTINUED

>  <cas>
76-43-7

>  <name>
FLUOXYMESTERONE

>  <ID>
195

>  <Smiles>
C[C@](CC1)([C@@](C)(C[C@@H]2O)[C@@H]1[C@H](CCC([C@]1(C)CC3)=CC3=O)[C@@]12F)O

$$$$

Actelion Java MolfileCreator 2.0

  0  0  0  0  0  0              0 V3000
M  V30 BEGIN CTAB
M  V30 COUNTS 20 21 0 0 0
M  V30 BEGIN ATOM
M  V30 1 O 3.4641 -0.5 0.0 0
M  V30 2 C 4.3301 0.0 0.0 0 CFG=2
M  V30 3 C 2.598 0.0 0.0 0
M  V30 4 C 5.1961 -0.5 0.0 0
M  V30 5 C 4.3301 1.0 0.0 0
M  V30 6 C 1.732 -0.5 0.0 0
M  V30 7 C 5.1961 -1.5 0.0 0
M  V30 8 C 6.0621 0.0 0.0 0
M  V30 9 C 5.1961 1.4999 0.0 0
M  V30 10 C 3.4641 1.5 0.0 0
M  V30 11 N 0.866 0.0 0.0 0
M  V30 12 C 6.0621 -2.0 0.0 0
M  V30 13 C 4.3301 -1.9999 0.0 0
M  V30 14 C 6.9282 -0.5 0.0 0
M  V30 15 C 5.1961 2.4999 0.0 0
M  V30 16 C 3.4641 2.5 0.0 0
M  V30 17 C 0.866 1.0 0.0 0
M  V30 18 C 0.0 -0.5 0.0 0
M  V30 19 C 6.9282 -1.5 0.0 0
M  V30 20 C 4.3301 2.9999 0.0 0
M  V30 END ATOM
M  V30 BEGIN BOND
M  V30 1 1 2 1 CFG=1
M  V30 2 1 1 3
M  V30 3 1 2 4
M  V30 4 1 2 5
M  V30 5 1 3 6
M  V30 6 2 4 7
M  V30 7 1 4 8
M  V30 8 2 5 9
M  V30 9 1 5 10
M  V30 10 1 6 11
M  V30 11 1 7 12
M  V30 12 1 7 13
M  V30 13 2 8 14
M  V30 14 1 9 15
M  V30 15 2 10 16
M  V30 16 1 11 17
M  V30 17 1 11 18
M  V30 18 2 12 19
M  V30 19 2 15 20
M  V30 20 1 14 19
M  V30 21 1 16 20
M  V30 END BOND
M  V30 BEGIN COLLECTION
M  V30 MDLV30/STERAC1 ATOMS=(1 2)
M  V30 END COLLECTION
M  V30 END CTAB
M  END
>  <Molecule Name>


>  <status>
-

>  <cas>
83-98-7

>  <name>
ORPHENADRINE

>  <ID>
196

>  <Smiles>
Cc1c(C(c2ccccc2)OCCN(C)C)cccc1

$$$$

Actelion Java MolfileCreator 2.0

  0  0  0  0  0  0              0 V3000
M  V30 BEGIN CTAB
M  V30 COUNTS 28 31 0 0 0
M  V30 BEGIN ATOM
M  V30 1 Cl 6.4951 -3.0 0.0 0
M  V30 2 C 5.1961 -2.25 0.0 0
M  V30 3 C 5.1961 -0.75 0.0 0
M  V30 4 C 3.8971 -2.9999 0.0 0
M  V30 5 C 3.8971 0.0 0.0 0
M  V30 6 C 2.598 -2.25 0.0 0
M  V30 7 C 2.598 -0.75 0.0 0
M  V30 8 C 1.299 0.0 0.0 0 CFG=1
M  V30 9 N 1.299 1.5 0.0 0
M  V30 10 C 0.0 -0.75 0.0 0
M  V30 11 C 2.598 2.25 0.0 0
M  V30 12 C 0.0 2.25 0.0 0
M  V30 13 C -1.299 0.0 0.0 0
M  V30 14 C 0.0 -2.25 0.0 0
M  V30 15 C 2.598 3.75 0.0 0
M  V30 16 C 0.0 3.75 0.0 0
M  V30 17 C -2.598 -0.7499 0.0 0
M  V30 18 C -1.299 -2.9999 0.0 0
M  V30 19 N 1.299 4.5 0.0 0
M  V30 20 C -2.598 -2.2499 0.0 0
M  V30 21 C 1.299 6.0 0.0 0
M  V30 22 C 0.0 6.75 0.0 0
M  V30 23 C 0.0 8.25 0.0 0
M  V30 24 C -1.299 6.0 0.0 0
M  V30 25 C -1.299 9.0 0.0 0
M  V30 26 C -2.598 6.75 0.0 0
M  V30 27 C -2.598 8.25 0.0 0
M  V30 28 C -1.299 10.5 0.0 0
M  V30 END ATOM
M  V30 BEGIN BOND
M  V30 1 1 1 2
M  V30 2 2 2 3
M  V30 3 1 2 4
M  V30 4 1 3 5
M  V30 5 2 4 6
M  V30 6 2 5 7
M  V30 7 1 8 7
M  V30 8 1 8 9 CFG=3
M  V30 9 1 8 10
M  V30 10 1 9 11
M  V30 11 1 9 12
M  V30 12 2 10 13
M  V30 13 1 10 14
M  V30 14 1 11 15
M  V30 15 1 12 16
M  V30 16 1 13 17
M  V30 17 2 14 18
M  V30 18 1 15 19
M  V30 19 2 17 20
M  V30 20 1 19 21
M  V30 21 1 21 22
M  V30 22 2 22 23
M  V30 23 1 22 24
M  V30 24 1 23 25
M  V30 25 2 24 26
M  V30 26 2 25 27
M  V30 27 1 25 28
M  V30 28 1 6 7
M  V30 29 1 16 19
M  V30 30 1 18 20
M  V30 31 1 26 27
M  V30 END BOND
M  V30 BEGIN COLLECTION
M  V30 MDLV30/STERAC1 ATOMS=(1 8)
M  V30 END COLLECTION
M  V30 END CTAB
M  END
>  <Molecule Name>


>  <status>
-

>  <cas>
569-65-3

>  <name>
MECLIZINE

>  <ID>
197

>  <Smiles>
Cc1cccc(CN(CC2)CCN2C(c2ccccc2)c(cc2)ccc2Cl)c1

$$$$

Actelion Java MolfileCreator 2.0

  0  0  0  0  0  0              0 V3000
M  V30 BEGIN CTAB
M  V30 COUNTS 11 10 0 0 0
M  V30 BEGIN ATOM
M  V30 1 P 3.8971 0.0 0.0 0
M  V30 2 F 4.6471 1.299 0.0 0
M  V30 3 O 3.1471 1.299 0.0 0
M  V30 4 O 5.1961 -0.75 0.0 0
M  V30 5 O 2.598 -0.75 0.0 0
M  V30 6 C 6.4952 0.0 0.0 0
M  V30 7 C 1.299 0.0 0.0 0
M  V30 8 C 7.7942 -0.75 0.0 0
M  V30 9 C 6.4952 1.5 0.0 0
M  V30 10 C 1.299 1.5 0.0 0
M  V30 11 C 0.0 -0.75 0.0 0
M  V30 END ATOM
M  V30 BEGIN BOND
M  V30 1 1 1 2
M  V30 2 2 1 3
M  V30 3 1 1 4
M  V30 4 1 1 5
M  V30 5 1 4 6
M  V30 6 1 5 7
M  V30 7 1 6 8
M  V30 8 1 6 9
M  V30 9 1 7 10
M  V30 10 1 7 11
M  V30 END BOND
M  V30 END CTAB
M  END
>  <Molecule Name>


>  <status>
DISCONTINUED

>  <cas>
55-91-4

>  <name>
ISOFLUROPHATE

>  <ID>
198

>  <Smiles>
CC(C)OP(OC(C)C)(F)=O

$$$$

Actelion Java MolfileCreator 2.0

  0  0  0  0  0  0              0 V3000
M  V30 BEGIN CTAB
M  V30 COUNTS 19 19 0 0 0
M  V30 BEGIN ATOM
M  V30 1 Cl 5.1961 -0.5 0.0 0
M  V30 2 C 4.3301 0.0 0.0 0
M  V30 3 C 3.4641 -0.5 0.0 0
M  V30 4 N 2.598 0.0 0.0 0
M  V30 5 C 2.598 1.0 0.0 0
M  V30 6 C 1.732 -0.5 0.0 0
M  V30 7 C 3.4641 1.5 0.0 0
M  V30 8 C 1.732 1.4999 0.0 0
M  V30 9 C 0.866 0.0 0.0 0
M  V30 10 C 3.4641 2.5 0.0 0
M  V30 11 C 1.732 2.5 0.0 0
M  V30 12 Cl 0.0 -0.5 0.0 0
M  V30 13 C 2.598 3.0 0.0 0
M  V30 14 C 2.598 4.0 0.0 0
M  V30 15 C 3.4641 4.5 0.0 0
M  V30 16 C 3.4641 5.5 0.0 0
M  V30 17 C 4.3301 6.0 0.0 0
M  V30 18 O 5.1961 5.5 0.0 0
M  V30 19 O 4.3301 7.0 0.0 0 CHG=-1
M  V30 END ATOM
M  V30 BEGIN BOND
M  V30 1 1 1 2
M  V30 2 1 2 3
M  V30 3 1 3 4
M  V30 4 1 4 5
M  V30 5 1 4 6
M  V30 6 2 5 7
M  V30 7 1 5 8
M  V30 8 1 6 9
M  V30 9 1 7 10
M  V30 10 2 8 11
M  V30 11 1 9 12
M  V30 12 2 10 13
M  V30 13 1 13 14
M  V30 14 1 14 15
M  V30 15 1 15 16
M  V30 16 1 16 17
M  V30 17 2 17 18
M  V30 18 1 17 19
M  V30 19 1 11 13
M  V30 END BOND
M  V30 END CTAB
M  END
>  <Molecule Name>


>  <status>
-

>  <cas>
305-03-3

>  <name>
CHLORAMBUCIL

>  <ID>
199

>  <Smiles>
[O-]C(CCCc(cc1)ccc1N(CCCl)CCCl)=O

$$$$

Actelion Java MolfileCreator 2.0

  0  0  0  0  0  0              0 V3000
M  V30 BEGIN CTAB
M  V30 COUNTS 18 18 0 0 0
M  V30 BEGIN ATOM
M  V30 1 S 9.0932 0.0 0.0 0
M  V30 2 O 9.8432 1.299 0.0 0
M  V30 3 O 8.3432 1.299 0.0 0
M  V30 4 N 7.7942 -0.75 0.0 0
M  V30 5 C 10.3923 -0.75 0.0 0
M  V30 6 C 6.4952 0.0 0.0 0
M  V30 7 C 10.3923 -2.25 0.0 0
M  V30 8 C 11.6913 0.0 0.0 0
M  V30 9 O 6.4952 1.5 0.0 0
M  V30 10 N 5.1961 -0.75 0.0 0
M  V30 11 C 11.6913 -3.0 0.0 0
M  V30 12 C 12.9904 -0.75 0.0 0
M  V30 13 C 3.8971 0.0 0.0 0
M  V30 14 C 12.9904 -2.25 0.0 0
M  V30 15 C 2.598 -0.75 0.0 0
M  V30 16 C 14.2894 -3.0 0.0 0
M  V30 17 C 1.299 0.0 0.0 0
M  V30 18 C 0.0 -0.75 0.0 0
M  V30 END ATOM
M  V30 BEGIN BOND
M  V30 1 2 1 2
M  V30 2 2 1 3
M  V30 3 1 1 4
M  V30 4 1 1 5
M  V30 5 1 4 6
M  V30 6 2 5 7
M  V30 7 1 5 8
M  V30 8 2 6 9
M  V30 9 1 6 10
M  V30 10 1 7 11
M  V30 11 2 8 12
M  V30 12 1 10 13
M  V30 13 2 11 14
M  V30 14 1 13 15
M  V30 15 1 14 16
M  V30 16 1 15 17
M  V30 17 1 17 18
M  V30 18 1 12 14
M  V30 END BOND
M  V30 END CTAB
M  END
>  <Molecule Name>


>  <status>
DISCONTINUED

>  <cas>
64-77-7

>  <name>
TOLBUTAMIDE

>  <ID>
200

>  <Smiles>
CCCCNC(NS(c1ccc(C)cc1)(=O)=O)=O

$$$$

Actelion Java MolfileCreator 2.0

  0  0  0  0  0  0              0 V3000
M  V30 BEGIN CTAB
M  V30 COUNTS 25 27 0 0 0
M  V30 BEGIN ATOM
M  V30 1 O 3.9818 0.0 0.0 0
M  V30 2 C 2.6545 -0.7663 0.0 0
M  V30 3 O 2.8188 -2.2003 0.0 0
M  V30 4 C 1.3272 0.0 0.0 0
M  V30 5 C 3.9818 -3.0652 0.0 0 CFG=2
M  V30 6 O 1.3272 1.5326 0.0 0
M  V30 7 C 1.3272 -1.5326 0.0 0
M  V30 8 C 0.0 -0.7663 0.0 0
M  V30 9 C 5.3091 -2.2989 0.0 0
M  V30 10 C 3.9818 -4.5978 0.0 0
M  V30 11 C 0.196 -2.3096 0.0 0
M  V30 12 C 2.326 -2.496 0.0 0
M  V30 13 C -1.3272 0.0 0.0 0
M  V30 14 C -0.3761 -2.3501 0.0 0
M  V30 15 N 6.6364 -3.0652 0.0 0 CHG=1
M  V30 16 C 5.3091 -5.3641 0.0 0
M  V30 17 C 0.0 -3.8315 0.0 0
M  V30 18 C 2.6545 -3.8315 0.0 0
M  V30 19 C -2.6545 -0.7663 0.0 0
M  V30 20 C -1.3272 -3.0652 0.0 0
M  V30 21 C 6.6364 -4.5978 0.0 0
M  V30 22 C 7.4026 -1.7379 0.0 0
M  V30 23 C 8.1689 -3.0652 0.0 0
M  V30 24 C 1.3272 -4.5978 0.0 0
M  V30 25 C -2.6545 -2.2989 0.0 0
M  V30 END ATOM
M  V30 BEGIN BOND
M  V30 1 2 1 2
M  V30 2 1 2 3
M  V30 3 1 2 4
M  V30 4 1 5 3 CFG=3
M  V30 5 1 4 6
M  V30 6 1 4 7
M  V30 7 1 4 8
M  V30 8 1 5 9
M  V30 9 1 5 10
M  V30 10 2 7 11
M  V30 11 1 7 12
M  V30 12 2 8 13
M  V30 13 1 8 14
M  V30 14 1 9 15
M  V30 15 1 10 16
M  V30 16 1 11 17
M  V30 17 2 12 18
M  V30 18 1 13 19
M  V30 19 2 14 20
M  V30 20 1 15 21
M  V30 21 1 15 22
M  V30 22 1 15 23
M  V30 23 2 17 24
M  V30 24 2 19 25
M  V30 25 1 16 21
M  V30 26 1 18 24
M  V30 27 1 20 25
M  V30 END BOND
M  V30 BEGIN COLLECTION
M  V30 MDLV30/STERAC1 ATOMS=(1 5)
M  V30 END COLLECTION
M  V30 END CTAB
M  END
>  <Molecule Name>


>  <status>
DISCONTINUED

>  <cas>
25990-43-6

>  <name>
MEPENZOLATE

>  <ID>
201

>  <Smiles>
C[N+](C)(CCC1)CC1OC(C(c1ccccc1)(c1ccccc1)O)=O

$$$$

Actelion Java MolfileCreator 2.0

  0  0  0  0  0  0              0 V3000
M  V30 BEGIN CTAB
M  V30 COUNTS 46 51 0 0 0
M  V30 BEGIN ATOM
M  V30 1 O 2.598 1.0 0.0 0
M  V30 2 C 2.598 0.0 0.0 0
M  V30 3 O 3.4641 -0.5 0.0 0
M  V30 4 C 1.732 -0.5 0.0 0
M  V30 5 C 4.3301 0.0 0.0 0 CFG=1
M  V30 6 C 0.866 0.0 0.0 0
M  V30 7 C 5.1961 -0.5 0.0 0 CFG=2
M  V30 8 C 4.3301 0.9999 0.0 0
M  V30 9 C 0.0 -0.5 0.0 0
M  V30 10 O 5.1961 -1.5 0.0 0
M  V30 11 C 6.0621 0.0 0.0 0 CFG=1
M  V30 12 C 5.1961 1.4999 0.0 0 CFG=1
M  V30 13 C -0.866 0.0 0.0 0
M  V30 14 C 0.0 -1.4999 0.0 0
M  V30 15 C 6.0621 -2.0 0.0 0
M  V30 16 C 6.9282 -0.5 0.0 0
M  V30 17 C 6.0621 0.9999 0.0 0 CFG=2
M  V30 18 C 5.1961 2.4999 0.0 0
M  V30 19 C -1.732 -0.4999 0.0 0
M  V30 20 C -0.866 -1.9999 0.0 0
M  V30 21 O 7.7942 0.0 0.0 0
M  V30 22 O 6.9282 -1.5 0.0 0
M  V30 23 C 6.9282 1.4999 0.0 0
M  V30 24 N 6.0621 2.9999 0.0 0
M  V30 25 O -2.598 0.0 0.0 0
M  V30 26 C -1.732 -1.4999 0.0 0
M  V30 27 O -0.866 -2.9999 0.0 0
M  V30 28 C 7.7942 -2.0 0.0 0
M  V30 29 C 6.9282 2.4999 0.0 0 CFG=1
M  V30 30 C 6.0621 3.9999 0.0 0
M  V30 31 C -3.4641 -0.4999 0.0 0
M  V30 32 O -2.598 -1.9999 0.0 0
M  V30 33 C 0.0 -3.4999 0.0 0
M  V30 34 C 7.7942 2.9999 0.0 0
M  V30 35 C 6.9282 4.4999 0.0 0
M  V30 36 C -2.598 -2.9999 0.0 0
M  V30 37 N 8.7452 2.6909 0.0 0
M  V30 38 C 7.7942 4.0 0.0 0
M  V30 39 C 9.333 3.4999 0.0 0
M  V30 40 C 8.7452 4.309 0.0 0
M  V30 41 C 10.3275 3.6045 0.0 0
M  V30 42 C 9.152 5.2225 0.0 0
M  V30 43 C 10.7343 4.518 0.0 0
M  V30 44 C 10.1465 5.327 0.0 0
M  V30 45 O 11.7288 4.6226 0.0 0
M  V30 46 C 12.1355 5.5361 0.0 0
M  V30 END ATOM
M  V30 BEGIN BOND
M  V30 1 2 1 2
M  V30 2 1 2 3
M  V30 3 1 2 4
M  V30 4 1 5 3 CFG=3
M  V30 5 2 4 6
M  V30 6 1 7 5
M  V30 7 1 5 8
M  V30 8 1 6 9
M  V30 9 1 7 10 CFG=1
M  V30 10 1 11 7
M  V30 11 1 12 8 CFG=3
M  V30 12 2 9 13
M  V30 13 1 9 14
M  V30 14 1 10 15
M  V30 15 1 11 16 CFG=3
M  V30 16 1 17 11
M  V30 17 1 12 18
M  V30 18 1 13 19
M  V30 19 2 14 20
M  V30 20 2 16 21
M  V30 21 1 16 22
M  V30 22 1 17 23 CFG=3
M  V30 23 1 18 24
M  V30 24 1 19 25
M  V30 25 2 19 26
M  V30 26 1 20 27
M  V30 27 1 22 28
M  V30 28 1 29 23
M  V30 29 1 24 30
M  V30 30 1 25 31
M  V30 31 1 26 32
M  V30 32 1 27 33
M  V30 33 1 29 34
M  V30 34 1 30 35
M  V30 35 1 32 36
M  V30 36 1 34 37
M  V30 37 2 34 38
M  V30 38 1 37 39
M  V30 39 1 38 40
M  V30 40 1 39 41
M  V30 41 1 40 42
M  V30 42 2 41 43
M  V30 43 2 42 44
M  V30 44 1 43 45
M  V30 45 1 45 46
M  V30 46 1 12 17
M  V30 47 1 20 26
M  V30 48 1 29 24 CFG=1
M  V30 49 1 35 38
M  V30 50 2 39 40
M  V30 51 1 43 44
M  V30 END BOND
M  V30 BEGIN COLLECTION
M  V30 MDLV30/STERAC1 ATOMS=(6 5 7 11 12 17 29)
M  V30 END COLLECTION
M  V30 END CTAB
M  END
>  <Molecule Name>


>  <status>
DISCONTINUED

>  <cas>
24815-24-5

>  <name>
RESCINNAMINE

>  <ID>
202

>  <Smiles>
CO[C@@H]([C@@H](C[C@H]1[C@@H]2C[C@H](c3c(CC4)c(ccc(OC)c5)c5[nH]3)N4C1)OC(/C=C/c(cc1OC)cc(OC)c1OC)=O)[C@H]2C(OC)=O

$$$$

Actelion Java MolfileCreator 2.0

  0  0  0  0  0  0              0 V3000
M  V30 BEGIN CTAB
M  V30 COUNTS 28 31 0 0 0
M  V30 BEGIN ATOM
M  V30 1 Cl 6.4951 -3.0 0.0 0
M  V30 2 C 5.1961 -2.25 0.0 0
M  V30 3 C 5.1961 -0.75 0.0 0
M  V30 4 C 3.8971 -2.9999 0.0 0
M  V30 5 C 3.8971 0.0 0.0 0
M  V30 6 C 2.598 -2.25 0.0 0
M  V30 7 C 2.598 -0.75 0.0 0
M  V30 8 C 1.299 0.0 0.0 0 CFG=1
M  V30 9 N 1.299 1.5 0.0 0
M  V30 10 C 0.0 -0.75 0.0 0
M  V30 11 C 2.598 2.25 0.0 0
M  V30 12 C 0.0 2.25 0.0 0
M  V30 13 C -1.299 0.0 0.0 0
M  V30 14 C 0.0 -2.25 0.0 0
M  V30 15 C 2.598 3.75 0.0 0
M  V30 16 C 0.0 3.75 0.0 0
M  V30 17 C -2.598 -0.7499 0.0 0
M  V30 18 C -1.299 -2.9999 0.0 0
M  V30 19 N 1.299 4.5 0.0 0
M  V30 20 C -2.598 -2.2499 0.0 0
M  V30 21 C 1.299 6.0 0.0 0
M  V30 22 C 0.0 6.75 0.0 0
M  V30 23 C 0.0 8.25 0.0 0
M  V30 24 C -1.299 6.0 0.0 0
M  V30 25 C -1.299 9.0 0.0 0
M  V30 26 C -2.598 6.75 0.0 0
M  V30 27 C -2.598 8.25 0.0 0
M  V30 28 C -1.299 10.5 0.0 0
M  V30 END ATOM
M  V30 BEGIN BOND
M  V30 1 1 1 2
M  V30 2 2 2 3
M  V30 3 1 2 4
M  V30 4 1 3 5
M  V30 5 2 4 6
M  V30 6 2 5 7
M  V30 7 1 8 7
M  V30 8 1 8 9 CFG=3
M  V30 9 1 8 10
M  V30 10 1 9 11
M  V30 11 1 9 12
M  V30 12 2 10 13
M  V30 13 1 10 14
M  V30 14 1 11 15
M  V30 15 1 12 16
M  V30 16 1 13 17
M  V30 17 2 14 18
M  V30 18 1 15 19
M  V30 19 2 17 20
M  V30 20 1 19 21
M  V30 21 1 21 22
M  V30 22 2 22 23
M  V30 23 1 22 24
M  V30 24 1 23 25
M  V30 25 2 24 26
M  V30 26 2 25 27
M  V30 27 1 25 28
M  V30 28 1 6 7
M  V30 29 1 16 19
M  V30 30 1 18 20
M  V30 31 1 26 27
M  V30 END BOND
M  V30 BEGIN COLLECTION
M  V30 MDLV30/STERAC1 ATOMS=(1 8)
M  V30 END COLLECTION
M  V30 END CTAB
M  END
>  <Molecule Name>


>  <status>
-

>  <cas>
569-65-3

>  <name>
MECLIZINE

>  <ID>
203

>  <Smiles>
Cc1cccc(CN(CC2)CCN2C(c2ccccc2)c(cc2)ccc2Cl)c1

$$$$

Actelion Java MolfileCreator 2.0

  0  0  0  0  0  0              0 V3000
M  V30 BEGIN CTAB
M  V30 COUNTS 26 27 0 0 0
M  V30 BEGIN ATOM
M  V30 1 O 6.0621 0.0 0.0 0
M  V30 2 C 5.1961 -0.5 0.0 0
M  V30 3 N 5.0711 -1.6249 0.0 0
M  V30 4 C 4.3301 0.0 0.0 0
M  V30 5 C 4.3301 0.9999 0.0 0
M  V30 6 C 4.3301 -1.0 0.0 0
M  V30 7 C 3.4641 -0.5 0.0 0
M  V30 8 C 5.1961 1.4999 0.0 0
M  V30 9 C 3.4641 1.5 0.0 0
M  V30 10 C 3.4641 -1.5 0.0 0
M  V30 11 C 5.3897 -1.5215 0.0 0
M  V30 12 C 2.598 0.0 0.0 0
M  V30 13 C 5.1961 2.4999 0.0 0
M  V30 14 C 3.4641 2.5 0.0 0
M  V30 15 C 3.4641 -2.5 0.0 0
M  V30 16 C 5.1961 -2.4999 0.0 0
M  V30 17 N 1.732 -0.5 0.0 0 CHG=1
M  V30 18 C 4.3301 2.9999 0.0 0
M  V30 19 C 4.3301 -3.0 0.0 0
M  V30 20 C 1.732 -1.5 0.0 0
M  V30 21 C 0.866 0.0 0.0 0
M  V30 22 C 2.598 -0.9999 0.0 0
M  V30 23 C 2.598 -2.0 0.0 0
M  V30 24 C 0.866 -1.9999 0.0 0
M  V30 25 C 0.866 1.0 0.0 0
M  V30 26 C 0.0 -0.5 0.0 0
M  V30 END ATOM
M  V30 BEGIN BOND
M  V30 1 2 1 2
M  V30 2 1 2 3
M  V30 3 1 2 4
M  V30 4 1 4 5
M  V30 5 1 4 6
M  V30 6 1 4 7
M  V30 7 2 5 8
M  V30 8 1 5 9
M  V30 9 2 6 10
M  V30 10 1 6 11
M  V30 11 1 7 12
M  V30 12 1 8 13
M  V30 13 2 9 14
M  V30 14 1 10 15
M  V30 15 2 11 16
M  V30 16 1 12 17
M  V30 17 2 13 18
M  V30 18 2 15 19
M  V30 19 1 17 20
M  V30 20 1 17 21
M  V30 21 1 17 22
M  V30 22 1 20 23
M  V30 23 1 20 24
M  V30 24 1 21 25
M  V30 25 1 21 26
M  V30 26 1 14 18
M  V30 27 1 16 19
M  V30 END BOND
M  V30 END CTAB
M  END
>  <Molecule Name>


>  <status>
DISCONTINUED

>  <cas>
7492-32-2

>  <name>
ISOPROPAMIDE

>  <ID>
204

>  <Smiles>
CC(C)[N+](C)(CCC(C(N)=O)(c1ccccc1)c1ccccc1)C(C)C

$$$$

Actelion Java MolfileCreator 2.0

  0  0  0  0  0  0              0 V3000
M  V30 BEGIN CTAB
M  V30 COUNTS 27 30 0 0 0
M  V30 BEGIN ATOM
M  V30 1 Cl 5.1961 2.4999 0.0 0
M  V30 2 C 5.1961 1.4999 0.0 0
M  V30 3 C 4.3301 1.0 0.0 0
M  V30 4 C 6.0621 0.9999 0.0 0
M  V30 5 C 4.3301 0.0 0.0 0
M  V30 6 C 6.0621 0.0 0.0 0
M  V30 7 N 3.4641 -0.5 0.0 0
M  V30 8 C 5.1961 -0.5 0.0 0
M  V30 9 C 3.4641 -1.5 0.0 0
M  V30 10 C 2.598 0.0 0.0 0
M  V30 11 S 5.1961 -1.5 0.0 0
M  V30 12 C 4.3301 -2.0 0.0 0
M  V30 13 C 2.598 -1.9999 0.0 0
M  V30 14 C 1.732 -0.5 0.0 0
M  V30 15 C 4.3301 -3.0 0.0 0
M  V30 16 C 2.598 -3.0 0.0 0
M  V30 17 C 0.866 0.0 0.0 0
M  V30 18 C 3.4641 -3.4999 0.0 0
M  V30 19 N 0.0 -0.5 0.0 0
M  V30 20 C -0.866 0.0 0.0 0
M  V30 21 C 0.0 -1.4999 0.0 0
M  V30 22 C -1.732 -0.4999 0.0 0
M  V30 23 C -0.866 -1.9999 0.0 0
M  V30 24 N -1.732 -1.4999 0.0 0
M  V30 25 C -2.598 -1.9999 0.0 0
M  V30 26 C -3.4641 -1.4999 0.0 0
M  V30 27 O -4.3301 -1.9999 0.0 0
M  V30 END ATOM
M  V30 BEGIN BOND
M  V30 1 1 1 2
M  V30 2 2 2 3
M  V30 3 1 2 4
M  V30 4 1 3 5
M  V30 5 2 4 6
M  V30 6 1 5 7
M  V30 7 2 5 8
M  V30 8 1 7 9
M  V30 9 1 7 10
M  V30 10 1 8 11
M  V30 11 2 9 12
M  V30 12 1 9 13
M  V30 13 1 10 14
M  V30 14 1 12 15
M  V30 15 2 13 16
M  V30 16 1 14 17
M  V30 17 2 15 18
M  V30 18 1 17 19
M  V30 19 1 19 20
M  V30 20 1 19 21
M  V30 21 1 20 22
M  V30 22 1 21 23
M  V30 23 1 22 24
M  V30 24 1 24 25
M  V30 25 1 25 26
M  V30 26 1 26 27
M  V30 27 1 6 8
M  V30 28 1 11 12
M  V30 29 1 16 18
M  V30 30 1 23 24
M  V30 END BOND
M  V30 END CTAB
M  END
>  <Molecule Name>


>  <status>
-

>  <cas>
58-39-9

>  <name>
PERPHENAZINE

>  <ID>
205

>  <Smiles>
OCCN1CCN(CCCN2c(cc(cc3)Cl)c3Sc3c2cccc3)CC1

$$$$

Actelion Java MolfileCreator 2.0

  0  0  0  0  0  0              0 V3000
M  V30 BEGIN CTAB
M  V30 COUNTS 42 47 0 0 0
M  V30 BEGIN ATOM
M  V30 1 O 2.598 0.0 0.0 0
M  V30 2 C 1.732 -0.5 0.0 0
M  V30 3 O 0.866 0.0 0.0 0
M  V30 4 C 1.732 -1.5 0.0 0
M  V30 5 C 0.0 -0.5 0.0 0 CFG=1
M  V30 6 C 0.866 -2.0 0.0 0
M  V30 7 C 2.598 -1.9999 0.0 0
M  V30 8 C -0.866 0.0 0.0 0 CFG=2
M  V30 9 C 0.0 -1.4999 0.0 0
M  V30 10 C 0.866 -3.0 0.0 0
M  V30 11 C 2.598 -3.0 0.0 0
M  V30 12 O -0.866 1.0 0.0 0
M  V30 13 C -1.732 -0.4999 0.0 0 CFG=1
M  V30 14 C -0.866 -1.9999 0.0 0 CFG=1
M  V30 15 O 0.0 -3.5 0.0 0
M  V30 16 C 1.732 -3.5 0.0 0
M  V30 17 O 3.4641 -3.5 0.0 0
M  V30 18 C -1.732 1.5 0.0 0
M  V30 19 C -2.598 0.0 0.0 0
M  V30 20 C -1.732 -1.4999 0.0 0 CFG=2
M  V30 21 C -0.866 -2.9999 0.0 0
M  V30 22 C 0.0 -4.5 0.0 0
M  V30 23 O 1.732 -4.5 0.0 0
M  V30 24 C 4.3301 -3.0 0.0 0
M  V30 25 O -3.4641 -0.4999 0.0 0
M  V30 26 O -2.598 1.0 0.0 0
M  V30 27 C -2.598 -1.9999 0.0 0
M  V30 28 N -1.732 -3.4999 0.0 0
M  V30 29 C 2.598 -5.0 0.0 0
M  V30 30 C -3.4641 1.5 0.0 0
M  V30 31 C -2.598 -2.9999 0.0 0 CFG=1
M  V30 32 C -1.732 -4.4999 0.0 0
M  V30 33 C -3.4641 -3.4999 0.0 0
M  V30 34 C -2.598 -5.0 0.0 0
M  V30 35 N -4.4151 -3.1909 0.0 0
M  V30 36 C -3.4641 -4.5 0.0 0
M  V30 37 C -5.0029 -3.9999 0.0 0
M  V30 38 C -4.4151 -4.809 0.0 0
M  V30 39 C -5.9974 -4.1045 0.0 0
M  V30 40 C -4.8218 -5.7225 0.0 0
M  V30 41 C -6.4042 -5.018 0.0 0
M  V30 42 C -5.8164 -5.827 0.0 0
M  V30 END ATOM
M  V30 BEGIN BOND
M  V30 1 2 1 2
M  V30 2 1 2 3
M  V30 3 1 2 4
M  V30 4 1 5 3 CFG=3
M  V30 5 2 4 6
M  V30 6 1 4 7
M  V30 7 1 8 5
M  V30 8 1 5 9
M  V30 9 1 6 10
M  V30 10 2 7 11
M  V30 11 1 8 12 CFG=1
M  V30 12 1 13 8
M  V30 13 1 14 9 CFG=3
M  V30 14 1 10 15
M  V30 15 2 10 16
M  V30 16 1 11 17
M  V30 17 1 12 18
M  V30 18 1 13 19 CFG=3
M  V30 19 1 20 13
M  V30 20 1 14 21
M  V30 21 1 15 22
M  V30 22 1 16 23
M  V30 23 1 17 24
M  V30 24 2 19 25
M  V30 25 1 19 26
M  V30 26 1 20 27 CFG=3
M  V30 27 1 21 28
M  V30 28 1 23 29
M  V30 29 1 26 30
M  V30 30 1 31 27
M  V30 31 1 28 32
M  V30 32 1 31 33
M  V30 33 1 32 34
M  V30 34 1 33 35
M  V30 35 2 33 36
M  V30 36 1 35 37
M  V30 37 1 36 38
M  V30 38 1 37 39
M  V30 39 1 38 40
M  V30 40 2 39 41
M  V30 41 2 40 42
M  V30 42 1 11 16
M  V30 43 1 14 20
M  V30 44 1 31 28 CFG=1
M  V30 45 1 34 36
M  V30 46 2 37 38
M  V30 47 1 41 42
M  V30 END BOND
M  V30 BEGIN COLLECTION
M  V30 MDLV30/STERAC1 ATOMS=(6 5 8 13 14 20 31)
M  V30 END COLLECTION
M  V30 END CTAB
M  END
>  <Molecule Name>


>  <status>
DISCONTINUED

>  <cas>
131-01-1

>  <name>
DESERPIDINE

>  <ID>
206

>  <Smiles>
CO[C@@H]([C@@H](C[C@H]1[C@@H]2C[C@H](c3c(CC4)c(cccc5)c5[nH]3)N4C1)OC(c(cc1OC)cc(OC)c1OC)=O)[C@H]2C(OC)=O

$$$$

Actelion Java MolfileCreator 2.0

  0  0  0  0  0  0              0 V3000
M  V30 BEGIN CTAB
M  V30 COUNTS 19 20 0 0 0
M  V30 BEGIN ATOM
M  V30 1 Br 6.9282 1.4999 0.0 0
M  V30 2 C 6.0621 0.9999 0.0 0
M  V30 3 C 5.1961 1.4999 0.0 0
M  V30 4 C 6.0621 0.0 0.0 0
M  V30 5 C 4.3301 0.9999 0.0 0
M  V30 6 C 5.1961 -0.5 0.0 0
M  V30 7 C 4.3301 0.0 0.0 0
M  V30 8 C 3.4641 -0.5 0.0 0 CFG=1
M  V30 9 C 3.4641 -1.5 0.0 0
M  V30 10 C 2.598 0.0 0.0 0
M  V30 11 N 2.598 -1.9999 0.0 0
M  V30 12 C 4.3301 -2.0 0.0 0
M  V30 13 C 1.732 -0.5 0.0 0
M  V30 14 C 2.598 -2.9999 0.0 0
M  V30 15 C 4.3301 -3.0 0.0 0
M  V30 16 N 0.866 0.0 0.0 0
M  V30 17 C 3.4641 -3.5 0.0 0
M  V30 18 C 0.866 1.0 0.0 0
M  V30 19 C 0.0 -0.5 0.0 0
M  V30 END ATOM
M  V30 BEGIN BOND
M  V30 1 1 1 2
M  V30 2 2 2 3
M  V30 3 1 2 4
M  V30 4 1 3 5
M  V30 5 2 4 6
M  V30 6 2 5 7
M  V30 7 1 8 7
M  V30 8 1 8 9
M  V30 9 1 8 10 CFG=1
M  V30 10 2 9 11
M  V30 11 1 9 12
M  V30 12 1 10 13
M  V30 13 1 11 14
M  V30 14 2 12 15
M  V30 15 1 13 16
M  V30 16 2 14 17
M  V30 17 1 16 18
M  V30 18 1 16 19
M  V30 19 1 6 7
M  V30 20 1 15 17
M  V30 END BOND
M  V30 BEGIN COLLECTION
M  V30 MDLV30/STERAC1 ATOMS=(1 8)
M  V30 END COLLECTION
M  V30 END CTAB
M  END
>  <Molecule Name>


>  <status>
-

>  <cas>
132-21-8

>  <name>
DEXBROMPHENIRAMINE

>  <ID>
207

>  <Smiles>
CN(C)CCC(c(cc1)ccc1Br)c1ncccc1

$$$$

Actelion Java MolfileCreator 2.0

  0  0  0  0  0  0              0 V3000
M  V30 BEGIN CTAB
M  V30 COUNTS 15 16 0 0 0
M  V30 BEGIN ATOM
M  V30 1 O 4.2802 1.3273 0.0 0
M  V30 2 C 3.9683 -0.1398 0.0 0
M  V30 3 N 2.598 -0.75 0.0 0
M  V30 4 N 4.972 -1.2546 0.0 0
M  V30 5 C 2.7548 -2.2417 0.0 0
M  V30 6 C 1.299 0.0 0.0 0
M  V30 7 C 4.222 -2.5536 0.0 0 CFG=1
M  V30 8 O 1.6401 -3.2454 0.0 0
M  V30 9 C 0.0 -0.75 0.0 0
M  V30 10 C 4.8321 -3.9239 0.0 0
M  V30 11 C 3.9505 -5.1374 0.0 0
M  V30 12 C 6.3239 -4.0807 0.0 0
M  V30 13 C 4.5606 -6.5078 0.0 0
M  V30 14 C 6.934 -5.451 0.0 0
M  V30 15 C 6.0524 -6.6646 0.0 0
M  V30 END ATOM
M  V30 BEGIN BOND
M  V30 1 2 1 2
M  V30 2 1 2 3
M  V30 3 1 2 4
M  V30 4 1 3 5
M  V30 5 1 3 6
M  V30 6 1 7 4
M  V30 7 2 5 8
M  V30 8 1 6 9
M  V30 9 1 7 10 CFG=3
M  V30 10 2 10 11
M  V30 11 1 10 12
M  V30 12 1 11 13
M  V30 13 2 12 14
M  V30 14 2 13 15
M  V30 15 1 5 7
M  V30 16 1 14 15
M  V30 END BOND
M  V30 BEGIN COLLECTION
M  V30 MDLV30/STERAC1 ATOMS=(1 7)
M  V30 END COLLECTION
M  V30 END CTAB
M  END
>  <Molecule Name>


>  <status>
DISCONTINUED

>  <cas>
86-35-1

>  <name>
ETHOTOIN

>  <ID>
208

>  <Smiles>
CCN(C(C(c1ccccc1)N1)=O)C1=O

$$$$

Actelion Java MolfileCreator 2.0

  0  0  0  0  0  0              0 V3000
M  V30 BEGIN CTAB
M  V30 COUNTS 22 25 0 0 0
M  V30 BEGIN ATOM
M  V30 1 O 1.4931 5.9671 0.0 0
M  V30 2 C 1.3886 4.9726 0.0 0
M  V30 3 C 2.1976 4.3848 0.0 0
M  V30 4 C 0.4751 4.5658 0.0 0
M  V30 5 C 2.0931 3.3903 0.0 0
M  V30 6 C 0.3705 3.5713 0.0 0
M  V30 7 C 1.1796 2.9835 0.0 0 CFG=2
M  V30 8 C 2.9021 2.8025 0.0 0
M  V30 9 C 1.075 1.989 0.0 0 CFG=2
M  V30 10 C 2.7976 1.8079 0.0 0
M  V30 11 C 1.884 1.4012 0.0 0 CFG=1
M  V30 12 C 0.1615 1.5823 0.0 0
M  V30 13 C 1.7795 0.4067 0.0 0 CFG=1
M  V30 14 C 0.057 0.5877 0.0 0
M  V30 15 C 0.866 0.0 0.0 0 CFG=2
M  V30 16 C 2.4487 -0.3364 0.0 0
M  V30 17 C 0.9705 -0.9945 0.0 0 CFG=2
M  V30 18 C 0.0 -0.5 0.0 0
M  V30 19 C 1.9487 -1.2024 0.0 0
M  V30 20 O 1.2293 -1.9604 0.0 0
M  V30 21 C 0.2274 -1.6636 0.0 0
M  V30 22 C -0.5157 -2.3327 0.0 0
M  V30 END ATOM
M  V30 BEGIN BOND
M  V30 1 2 1 2
M  V30 2 1 2 3
M  V30 3 1 2 4
M  V30 4 2 3 5
M  V30 5 1 4 6
M  V30 6 1 7 5
M  V30 7 1 5 8
M  V30 8 1 9 7
M  V30 9 1 8 10
M  V30 10 1 11 9
M  V30 11 1 9 12 CFG=3
M  V30 12 1 13 11
M  V30 13 1 12 14
M  V30 14 1 15 13
M  V30 15 1 13 16 CFG=3
M  V30 16 1 17 15
M  V30 17 1 15 18 CFG=3
M  V30 18 1 16 19
M  V30 19 1 17 20 CFG=3
M  V30 20 1 17 21
M  V30 21 3 21 22
M  V30 22 1 7 6 CFG=1
M  V30 23 1 11 10 CFG=1
M  V30 24 1 14 15
M  V30 25 1 17 19
M  V30 END BOND
M  V30 BEGIN COLLECTION
M  V30 MDLV30/STERAC1 ATOMS=(6 7 9 11 13 15 17)
M  V30 END COLLECTION
M  V30 END CTAB
M  END
>  <Molecule Name>


>  <status>
-

>  <cas>
68-22-4

>  <name>
NORETHINDRONE

>  <ID>
209

>  <Smiles>
C[C@](CC1)([C@@H](CC2)[C@H](CC3)[C@H]1[C@@H](CC1)C3=CC1=O)[C@@]2(C#C)O

$$$$

Actelion Java MolfileCreator 2.0

  0  0  0  0  0  0              0 V3000
M  V30 BEGIN CTAB
M  V30 COUNTS 25 28 0 0 0
M  V30 BEGIN ATOM
M  V30 1 O -2.4832 4.7872 0.0 0
M  V30 2 C -1.7761 4.0801 0.0 0
M  V30 3 C -0.8102 4.3389 0.0 0
M  V30 4 C -2.0349 3.1142 0.0 0
M  V30 5 C -0.103 3.6318 0.0 0
M  V30 6 C -1.3278 2.4071 0.0 0
M  V30 7 C -0.3619 2.6659 0.0 0 CFG=2
M  V30 8 C 0.8628 3.8907 0.0 0
M  V30 9 C 0.3451 1.9588 0.0 0 CFG=2
M  V30 10 C 1.5699 3.1835 0.0 0
M  V30 11 C 1.3111 2.2176 0.0 0 CFG=1
M  V30 12 C 0.0863 0.9929 0.0 0
M  V30 13 C 2.0182 1.5105 0.0 0 CFG=1
M  V30 14 C 0.762 0.3088 0.0 0
M  V30 15 C 1.7594 0.5446 0.0 0 CFG=2
M  V30 16 C 3.0168 1.5629 0.0 0
M  V30 17 C 2.598 0.0 0.0 0 CFG=2
M  V30 18 C 1.4602 -0.5117 0.0 0
M  V30 19 C 3.3752 0.6293 0.0 0
M  V30 20 O 1.8483 -0.5329 0.0 0
M  V30 21 C 2.6504 -0.9986 0.0 0
M  V30 22 C 0.8938 -0.0824 0.0 0
M  V30 23 C 2.7027 -1.9972 0.0 0
M  V30 24 O 0.866 1.0 0.0 0
M  V30 25 C 0.0 -0.5 0.0 0
M  V30 END ATOM
M  V30 BEGIN BOND
M  V30 1 2 1 2
M  V30 2 1 2 3
M  V30 3 1 2 4
M  V30 4 2 3 5
M  V30 5 1 4 6
M  V30 6 1 7 5
M  V30 7 1 5 8
M  V30 8 1 9 7
M  V30 9 1 8 10
M  V30 10 1 11 9
M  V30 11 1 9 12 CFG=3
M  V30 12 1 13 11
M  V30 13 1 12 14
M  V30 14 1 15 13
M  V30 15 1 13 16 CFG=3
M  V30 16 1 17 15
M  V30 17 1 15 18 CFG=3
M  V30 18 1 16 19
M  V30 19 1 17 20 CFG=3
M  V30 20 1 17 21
M  V30 21 1 20 22
M  V30 22 3 21 23
M  V30 23 2 22 24
M  V30 24 1 22 25
M  V30 25 1 7 6 CFG=1
M  V30 26 1 11 10 CFG=1
M  V30 27 1 14 15
M  V30 28 1 17 19
M  V30 END BOND
M  V30 BEGIN COLLECTION
M  V30 MDLV30/STERAC1 ATOMS=(6 7 9 11 13 15 17)
M  V30 END COLLECTION
M  V30 END CTAB
M  END
>  <Molecule Name>


>  <status>
-

>  <cas>
51-98-9

>  <name>
NORETHINDRONE ACETATE

>  <ID>
210

>  <Smiles>
C[C@](CC1)([C@@H](CC2)[C@H](CC3)[C@H]1[C@@H](CC1)C3=CC1=O)[C@@]2(C#C)OC(C)=O

$$$$

Actelion Java MolfileCreator 2.0

  0  0  0  0  0  0              0 V3000
M  V30 BEGIN CTAB
M  V30 COUNTS 19 21 0 0 0
M  V30 BEGIN ATOM
M  V30 1 O 3.6915 -3.6636 0.0 0
M  V30 2 C 4.4346 -2.9945 0.0 0
M  V30 3 C 5.4128 -3.2024 0.0 0
M  V30 4 C 4.3301 -1.9999 0.0 0
M  V30 5 C 5.9128 -2.3364 0.0 0
M  V30 6 C 5.9128 -4.0684 0.0 0
M  V30 7 C 3.4641 -1.4999 0.0 0
M  V30 8 C 5.2436 -1.5932 0.0 0
M  V30 9 C 6.9128 -2.3364 0.0 0
M  V30 10 C 6.9128 -4.0684 0.0 0
M  V30 11 C 3.4641 -0.5 0.0 0
M  V30 12 C 2.598 -1.9999 0.0 0
M  V30 13 O 5.4515 -0.6151 0.0 0
M  V30 14 C 7.4128 -3.2024 0.0 0
M  V30 15 C 2.598 0.0 0.0 0
M  V30 16 C 1.732 -1.5 0.0 0
M  V30 17 C 1.732 -0.5 0.0 0
M  V30 18 O 0.866 0.0 0.0 0
M  V30 19 C 0.0 -0.5 0.0 0
M  V30 END ATOM
M  V30 BEGIN BOND
M  V30 1 2 1 2
M  V30 2 1 2 3
M  V30 3 1 2 4
M  V30 4 2 3 5
M  V30 5 1 3 6
M  V30 6 1 4 7
M  V30 7 1 4 8
M  V30 8 1 5 9
M  V30 9 2 6 10
M  V30 10 2 7 11
M  V30 11 1 7 12
M  V30 12 2 8 13
M  V30 13 2 9 14
M  V30 14 1 11 15
M  V30 15 2 12 16
M  V30 16 2 15 17
M  V30 17 1 17 18
M  V30 18 1 18 19
M  V30 19 1 5 8
M  V30 20 1 10 14
M  V30 21 1 16 17
M  V30 END BOND
M  V30 END CTAB
M  END
>  <Molecule Name>


>  <status>
DISCONTINUED

>  <cas>
117-37-3

>  <name>
ANISINDIONE

>  <ID>
211

>  <Smiles>
COc1ccc(C(C(c2c3cccc2)=O)C3=O)cc1

$$$$

Actelion Java MolfileCreator 2.0

  0  0  0  0  0  0              0 V3000
M  V30 BEGIN CTAB
M  V30 COUNTS 31 34 0 0 0
M  V30 BEGIN ATOM
M  V30 1 Cl 6.4951 -3.0 0.0 0
M  V30 2 C 5.1961 -2.25 0.0 0
M  V30 3 C 5.1961 -0.75 0.0 0
M  V30 4 C 3.8971 -2.9999 0.0 0
M  V30 5 C 3.8971 0.0 0.0 0
M  V30 6 C 2.598 -2.25 0.0 0
M  V30 7 C 2.598 -0.75 0.0 0
M  V30 8 C 1.299 0.0 0.0 0 CFG=1
M  V30 9 N 1.299 1.5 0.0 0
M  V30 10 C 0.0 -0.75 0.0 0
M  V30 11 C 2.598 2.25 0.0 0
M  V30 12 C 0.0 2.25 0.0 0
M  V30 13 C -1.299 0.0 0.0 0
M  V30 14 C 0.0 -2.25 0.0 0
M  V30 15 C 2.598 3.75 0.0 0
M  V30 16 C 0.0 3.75 0.0 0
M  V30 17 C -2.598 -0.7499 0.0 0
M  V30 18 C -1.299 -2.9999 0.0 0
M  V30 19 N 1.299 4.5 0.0 0
M  V30 20 C -2.598 -2.2499 0.0 0
M  V30 21 C 1.299 6.0 0.0 0
M  V30 22 C 0.0 6.75 0.0 0
M  V30 23 C 0.0 8.25 0.0 0
M  V30 24 C -1.299 6.0 0.0 0
M  V30 25 C -1.299 9.0 0.0 0
M  V30 26 C -2.598 6.75 0.0 0
M  V30 27 C -2.598 8.25 0.0 0
M  V30 28 C -3.8971 9.0 0.0 0
M  V30 29 C -4.6471 7.7009 0.0 0
M  V30 30 C -5.1961 9.75 0.0 0
M  V30 31 C -3.1471 10.299 0.0 0
M  V30 END ATOM
M  V30 BEGIN BOND
M  V30 1 1 1 2
M  V30 2 2 2 3
M  V30 3 1 2 4
M  V30 4 1 3 5
M  V30 5 2 4 6
M  V30 6 2 5 7
M  V30 7 1 8 7
M  V30 8 1 8 9 CFG=3
M  V30 9 1 8 10
M  V30 10 1 9 11
M  V30 11 1 9 12
M  V30 12 2 10 13
M  V30 13 1 10 14
M  V30 14 1 11 15
M  V30 15 1 12 16
M  V30 16 1 13 17
M  V30 17 2 14 18
M  V30 18 1 15 19
M  V30 19 2 17 20
M  V30 20 1 19 21
M  V30 21 1 21 22
M  V30 22 2 22 23
M  V30 23 1 22 24
M  V30 24 1 23 25
M  V30 25 2 24 26
M  V30 26 2 25 27
M  V30 27 1 27 28
M  V30 28 1 28 29
M  V30 29 1 28 30
M  V30 30 1 28 31
M  V30 31 1 6 7
M  V30 32 1 16 19
M  V30 33 1 18 20
M  V30 34 1 26 27
M  V30 END BOND
M  V30 BEGIN COLLECTION
M  V30 MDLV30/STERAC1 ATOMS=(1 8)
M  V30 END COLLECTION
M  V30 END CTAB
M  END
>  <Molecule Name>


>  <status>
DISCONTINUED

>  <cas>
82-95-1

>  <name>
BUCLIZINE

>  <ID>
212

>  <Smiles>
CC(C)(C)c1ccc(CN(CC2)CCN2C(c2ccccc2)c(cc2)ccc2Cl)cc1

$$$$

Actelion Java MolfileCreator 2.0

  0  0  0  0  0  0              0 V3000
M  V30 BEGIN CTAB
M  V30 COUNTS 23 26 0 0 0
M  V30 BEGIN ATOM
M  V30 1 O 0.866 0.0 0.0 0
M  V30 2 C 1.732 -0.5 0.0 0
M  V30 3 C 0.0 -0.5 0.0 0
M  V30 4 C 2.598 0.0 0.0 0
M  V30 5 C 1.732 -1.4999 0.0 0
M  V30 6 C 3.4641 -0.5 0.0 0
M  V30 7 C 2.598 -1.9999 0.0 0
M  V30 8 C 3.4641 -1.5 0.0 0
M  V30 9 C 4.3301 0.0 0.0 0
M  V30 10 C 4.3301 -2.0 0.0 0 CFG=2
M  V30 11 C 5.1961 -0.5 0.0 0
M  V30 12 C 5.1961 -1.5 0.0 0 CFG=1
M  V30 13 C 4.3301 -3.0 0.0 0
M  V30 14 C 6.0621 -2.0 0.0 0 CFG=1
M  V30 15 C 5.1961 -3.5 0.0 0
M  V30 16 C 6.0621 -3.0 0.0 0 CFG=2
M  V30 17 C 7.0132 -1.6909 0.0 0
M  V30 18 C 7.0132 -3.309 0.0 0 CFG=2
M  V30 19 C 6.1667 -3.9945 0.0 0
M  V30 20 C 7.601 -2.5 0.0 0
M  V30 21 O 8.0009 -3.4654 0.0 0
M  V30 22 C 7.3222 -4.26 0.0 0
M  V30 23 C 7.6312 -5.2111 0.0 0
M  V30 END ATOM
M  V30 BEGIN BOND
M  V30 1 1 1 2
M  V30 2 1 1 3
M  V30 3 2 2 4
M  V30 4 1 2 5
M  V30 5 1 4 6
M  V30 6 2 5 7
M  V30 7 2 6 8
M  V30 8 1 6 9
M  V30 9 1 10 8
M  V30 10 1 9 11
M  V30 11 1 12 10
M  V30 12 1 10 13 CFG=3
M  V30 13 1 14 12
M  V30 14 1 13 15
M  V30 15 1 16 14
M  V30 16 1 14 17 CFG=3
M  V30 17 1 18 16
M  V30 18 1 16 19 CFG=3
M  V30 19 1 17 20
M  V30 20 1 18 21 CFG=3
M  V30 21 1 18 22
M  V30 22 3 22 23
M  V30 23 1 7 8
M  V30 24 1 12 11 CFG=1
M  V30 25 1 15 16
M  V30 26 1 18 20
M  V30 END BOND
M  V30 BEGIN COLLECTION
M  V30 MDLV30/STERAC1 ATOMS=(5 10 12 14 16 18)
M  V30 END COLLECTION
M  V30 END CTAB
M  END
>  <Molecule Name>


>  <status>
DISCONTINUED

>  <cas>
72-33-3

>  <name>
MESTRANOL

>  <ID>
213

>  <Smiles>
C[C@](CC1)([C@@H](CC2)[C@H](CC3)[C@H]1c(cc1)c3cc1OC)[C@@]2(C#C)O

$$$$

Actelion Java MolfileCreator 2.0

  0  0  0  0  0  0              0 V3000
M  V30 BEGIN CTAB
M  V30 COUNTS 22 25 0 0 0
M  V30 BEGIN ATOM
M  V30 1 O 1.4931 5.9671 0.0 0
M  V30 2 C 1.3886 4.9726 0.0 0
M  V30 3 C 2.1976 4.3848 0.0 0
M  V30 4 C 0.4751 4.5658 0.0 0
M  V30 5 C 2.0931 3.3903 0.0 0
M  V30 6 C 0.3705 3.5713 0.0 0
M  V30 7 C 1.1796 2.9835 0.0 0
M  V30 8 C 2.9021 2.8025 0.0 0
M  V30 9 C 1.075 1.989 0.0 0 CFG=2
M  V30 10 C 2.7976 1.8079 0.0 0
M  V30 11 C 1.884 1.4012 0.0 0 CFG=1
M  V30 12 C 0.1615 1.5823 0.0 0
M  V30 13 C 1.7795 0.4067 0.0 0 CFG=1
M  V30 14 C 0.057 0.5877 0.0 0
M  V30 15 C 0.866 0.0 0.0 0 CFG=2
M  V30 16 C 2.4487 -0.3364 0.0 0
M  V30 17 C 0.9705 -0.9945 0.0 0 CFG=2
M  V30 18 C 0.0 -0.5 0.0 0
M  V30 19 C 1.9487 -1.2024 0.0 0
M  V30 20 O 1.2293 -1.9604 0.0 0
M  V30 21 C 0.2274 -1.6636 0.0 0
M  V30 22 C -0.5157 -2.3327 0.0 0
M  V30 END ATOM
M  V30 BEGIN BOND
M  V30 1 2 1 2
M  V30 2 1 2 3
M  V30 3 1 2 4
M  V30 4 1 3 5
M  V30 5 1 4 6
M  V30 6 2 5 7
M  V30 7 1 5 8
M  V30 8 1 9 7
M  V30 9 1 8 10
M  V30 10 1 11 9
M  V30 11 1 9 12 CFG=3
M  V30 12 1 13 11
M  V30 13 1 12 14
M  V30 14 1 15 13
M  V30 15 1 13 16 CFG=3
M  V30 16 1 17 15
M  V30 17 1 15 18 CFG=3
M  V30 18 1 16 19
M  V30 19 1 17 20 CFG=3
M  V30 20 1 17 21
M  V30 21 3 21 22
M  V30 22 1 6 7
M  V30 23 1 11 10 CFG=1
M  V30 24 1 14 15
M  V30 25 1 17 19
M  V30 END BOND
M  V30 BEGIN COLLECTION
M  V30 MDLV30/STERAC1 ATOMS=(5 9 11 13 15 17)
M  V30 END COLLECTION
M  V30 END CTAB
M  END
>  <Molecule Name>


>  <status>
DISCONTINUED

>  <cas>
68-23-5

>  <name>
NORETHYNODREL

>  <ID>
214

>  <Smiles>
C[C@](CC1)([C@@H](CC2)[C@H](CC3)[C@H]1C(CC1)=C3CC1=O)[C@@]2(C#C)O

$$$$

Actelion Java MolfileCreator 2.0

  0  0  0  0  0  0              0 V3000
M  V30 BEGIN CTAB
M  V30 COUNTS 25 26 0 0 0
M  V30 BEGIN ATOM
M  V30 1 O 5.1961 -1.4999 0.0 0
M  V30 2 C 5.1961 -0.5 0.0 0
M  V30 3 O 4.3301 0.0 0.0 0
M  V30 4 C 6.0621 0.0 0.0 0
M  V30 5 C 3.4641 -0.5 0.0 0 CFG=2
M  V30 6 C 6.9282 -0.5 0.0 0
M  V30 7 C 3.4641 0.5 0.0 0
M  V30 8 C 2.598 0.0 0.0 0 CFG=1
M  V30 9 C 3.4641 -1.5 0.0 0
M  V30 10 C 4.3301 1.0 0.0 0
M  V30 11 C 2.7646 1.0274 0.0 0
M  V30 12 C 1.732 -0.5 0.0 0
M  V30 13 C 2.4081 1.1535 0.0 0
M  V30 14 C 2.598 -2.0 0.0 0
M  V30 15 C 4.3301 2.0 0.0 0
M  V30 16 C 2.598 1.9999 0.0 0
M  V30 17 N 0.866 0.0 0.0 0
M  V30 18 C 1.732 -1.5 0.0 0
M  V30 19 C 2.598 -2.9999 0.0 0
M  V30 20 C 3.4641 2.5 0.0 0
M  V30 21 C 0.866 1.0 0.0 0
M  V30 22 C 0.0 -0.5 0.0 0
M  V30 23 C 0.866 -2.0 0.0 0
M  V30 24 C 1.732 -3.5 0.0 0
M  V30 25 C 0.866 -2.9999 0.0 0
M  V30 END ATOM
M  V30 BEGIN BOND
M  V30 1 2 1 2
M  V30 2 1 2 3
M  V30 3 1 2 4
M  V30 4 1 5 3
M  V30 5 1 4 6
M  V30 6 1 5 7 CFG=3
M  V30 7 1 8 5
M  V30 8 1 5 9
M  V30 9 2 7 10
M  V30 10 1 7 11
M  V30 11 1 8 12
M  V30 12 1 8 13 CFG=1
M  V30 13 1 9 14
M  V30 14 1 10 15
M  V30 15 2 11 16
M  V30 16 1 12 17
M  V30 17 2 14 18
M  V30 18 1 14 19
M  V30 19 2 15 20
M  V30 20 1 17 21
M  V30 21 1 17 22
M  V30 22 1 18 23
M  V30 23 2 19 24
M  V30 24 2 23 25
M  V30 25 1 16 20
M  V30 26 1 24 25
M  V30 END BOND
M  V30 BEGIN COLLECTION
M  V30 MDLV30/STERAC1 ATOMS=(2 5 8)
M  V30 END COLLECTION
M  V30 END CTAB
M  END
>  <Molecule Name>


>  <status>
DISCONTINUED

>  <cas>
469-62-5

>  <name>
PROPOXYPHENE

>  <ID>
215

>  <Smiles>
CCC(O[C@@](Cc1ccccc1)([C@H](C)CN(C)C)c1ccccc1)=O

$$$$

Actelion Java MolfileCreator 2.0

  0  0  0  0  0  0              0 V3000
M  V30 BEGIN CTAB
M  V30 COUNTS 17 17 0 0 0
M  V30 BEGIN ATOM
M  V30 1 O 6.0621 0.0 0.0 0
M  V30 2 C 5.1961 -0.5 0.0 0
M  V30 3 O 4.3301 0.0 0.0 0
M  V30 4 N 5.1961 -1.4999 0.0 0
M  V30 5 C 3.4641 -0.5 0.0 0
M  V30 6 C 2.598 0.0 0.0 0 CFG=2
M  V30 7 O 2.598 1.0 0.0 0
M  V30 8 C 1.732 -0.5 0.0 0
M  V30 9 O 0.866 0.0 0.0 0
M  V30 10 C 0.0 -0.5 0.0 0
M  V30 11 C -0.866 0.0 0.0 0
M  V30 12 C 0.0 -1.4999 0.0 0
M  V30 13 O -0.866 1.0 0.0 0
M  V30 14 C -1.732 -0.4999 0.0 0
M  V30 15 C -0.866 -1.9999 0.0 0
M  V30 16 C -1.732 1.5 0.0 0
M  V30 17 C -1.732 -1.4999 0.0 0
M  V30 END ATOM
M  V30 BEGIN BOND
M  V30 1 2 1 2
M  V30 2 1 2 3
M  V30 3 1 2 4
M  V30 4 1 3 5
M  V30 5 1 6 5
M  V30 6 1 6 7 CFG=1
M  V30 7 1 6 8
M  V30 8 1 8 9
M  V30 9 1 9 10
M  V30 10 2 10 11
M  V30 11 1 10 12
M  V30 12 1 11 13
M  V30 13 1 11 14
M  V30 14 2 12 15
M  V30 15 1 13 16
M  V30 16 2 14 17
M  V30 17 1 15 17
M  V30 END BOND
M  V30 BEGIN COLLECTION
M  V30 MDLV30/STERAC1 ATOMS=(1 6)
M  V30 END COLLECTION
M  V30 END CTAB
M  END
>  <Molecule Name>


>  <status>
-

>  <cas>
532-03-6

>  <name>
METHOCARBAMOL

>  <ID>
216

>  <Smiles>
COc(cccc1)c1OCC(COC(N)=O)O

$$$$

Actelion Java MolfileCreator 2.0

  0  0  0  0  0  0              0 V3000
M  V30 BEGIN CTAB
M  V30 COUNTS 16 17 0 0 0
M  V30 BEGIN ATOM
M  V30 1 S 7.7498 5.173 0.0 0
M  V30 2 O 9.0488 4.423 0.0 0
M  V30 3 O 6.4507 5.923 0.0 0
M  V30 4 N 8.4998 6.472 0.0 0
M  V30 5 C 6.9998 3.874 0.0 0
M  V30 6 S 5.508 3.7172 0.0 0
M  V30 7 N 7.6099 2.5036 0.0 0
M  V30 8 C 5.1961 2.25 0.0 0
M  V30 9 C 6.4951 1.5 0.0 0
M  V30 10 C 3.8971 1.5 0.0 0
M  V30 11 C 6.4951 0.0 0.0 0
M  V30 12 C 3.8971 0.0 0.0 0
M  V30 13 C 5.1961 -0.7499 0.0 0
M  V30 14 O 2.598 -0.75 0.0 0
M  V30 15 C 1.299 0.0 0.0 0
M  V30 16 C 0.0 -0.75 0.0 0
M  V30 END ATOM
M  V30 BEGIN BOND
M  V30 1 2 1 2
M  V30 2 2 1 3
M  V30 3 1 1 4
M  V30 4 1 1 5
M  V30 5 1 5 6
M  V30 6 2 5 7
M  V30 7 1 6 8
M  V30 8 1 7 9
M  V30 9 1 8 10
M  V30 10 1 9 11
M  V30 11 2 10 12
M  V30 12 2 11 13
M  V30 13 1 12 14
M  V30 14 1 14 15
M  V30 15 1 15 16
M  V30 16 2 8 9
M  V30 17 1 12 13
M  V30 END BOND
M  V30 END CTAB
M  END
>  <Molecule Name>


>  <status>
DISCONTINUED

>  <cas>
452-35-7

>  <name>
ETHOXZOLAMIDE

>  <ID>
217

>  <Smiles>
CCOc(cc1)cc(s2)c1nc2S(N)(=O)=O

$$$$

Actelion Java MolfileCreator 2.0

  0  0  0  0  0  0              0 V3000
M  V30 BEGIN CTAB
M  V30 COUNTS 9 9 0 0 0
M  V30 BEGIN ATOM
M  V30 1 O 2.598 -0.75 0.0 0
M  V30 2 C 1.299 0.0 0.0 0
M  V30 3 O 1.299 1.5 0.0 0 CHG=-1
M  V30 4 C 0.0 -0.75 0.0 0
M  V30 5 C -1.299 0.0 0.0 0
M  V30 6 C 0.0 -2.25 0.0 0
M  V30 7 N -2.598 -0.7499 0.0 0
M  V30 8 C -1.299 -2.9999 0.0 0
M  V30 9 C -2.598 -2.2499 0.0 0
M  V30 END ATOM
M  V30 BEGIN BOND
M  V30 1 2 1 2
M  V30 2 1 2 3
M  V30 3 1 2 4
M  V30 4 2 4 5
M  V30 5 1 4 6
M  V30 6 1 5 7
M  V30 7 2 6 8
M  V30 8 2 7 9
M  V30 9 1 8 9
M  V30 END BOND
M  V30 END CTAB
M  END
>  <Molecule Name>


>  <status>
-

>  <cas>
59-67-6

>  <name>
NIACIN

>  <ID>
218

>  <Smiles>
[O-]C(c1cnccc1)=O

$$$$

Actelion Java MolfileCreator 2.0

  0  0  0  0  0  0              0 V3000
M  V30 BEGIN CTAB
M  V30 COUNTS 21 23 0 0 0
M  V30 BEGIN ATOM
M  V30 1 N 4.3301 0.0 0.0 0
M  V30 2 C 3.4641 -0.5 0.0 0
M  V30 3 C 5.1961 -0.5 0.0 0
M  V30 4 C 2.598 0.0 0.0 0
M  V30 5 C 3.4641 -1.5 0.0 0
M  V30 6 C 5.1961 -1.5 0.0 0
M  V30 7 C 2.598 1.0 0.0 0
M  V30 8 C 1.732 -0.5 0.0 0
M  V30 9 C 4.3301 -2.0 0.0 0
M  V30 10 C 3.4641 1.5 0.0 0
M  V30 11 C 1.732 1.4999 0.0 0
M  V30 12 C 0.866 0.0 0.0 0
M  V30 13 C 3.4641 2.5 0.0 0
M  V30 14 C 1.732 2.5 0.0 0
M  V30 15 N 0.0 -0.5 0.0 0
M  V30 16 C 2.598 3.0 0.0 0
M  V30 17 C -0.9135 -0.0932 0.0 0
M  V30 18 C -0.1045 -1.4945 0.0 0
M  V30 19 C 2.598 4.0 0.0 0
M  V30 20 C -1.5826 -0.8364 0.0 0
M  V30 21 C -1.0826 -1.7024 0.0 0
M  V30 END ATOM
M  V30 BEGIN BOND
M  V30 1 2 1 2
M  V30 2 1 1 3
M  V30 3 1 2 4
M  V30 4 1 2 5
M  V30 5 2 3 6
M  V30 6 1 4 7
M  V30 7 2 4 8
M  V30 8 2 5 9
M  V30 9 2 7 10
M  V30 10 1 7 11
M  V30 11 1 8 12
M  V30 12 1 10 13
M  V30 13 2 11 14
M  V30 14 1 12 15
M  V30 15 2 13 16
M  V30 16 1 15 17
M  V30 17 1 15 18
M  V30 18 1 16 19
M  V30 19 1 17 20
M  V30 20 1 18 21
M  V30 21 1 6 9
M  V30 22 1 14 16
M  V30 23 1 20 21
M  V30 END BOND
M  V30 END CTAB
M  END
>  <Molecule Name>


>  <status>
-

>  <cas>
486-12-4

>  <name>
TRIPROLIDINE

>  <ID>
219

>  <Smiles>
Cc(cc1)ccc1/C(/c1ncccc1)=C\CN1CCCC1

$$$$

Actelion Java MolfileCreator 2.0

  0  0  0  0  0  0              0 V3000
M  V30 BEGIN CTAB
M  V30 COUNTS 24 26 0 0 0
M  V30 BEGIN ATOM
M  V30 1 S 6.0621 0.9999 0.0 0
M  V30 2 C 5.1961 1.4999 0.0 0
M  V30 3 C 6.0621 0.0 0.0 0
M  V30 4 C 4.3301 0.9999 0.0 0
M  V30 5 C 5.1961 2.4999 0.0 0
M  V30 6 C 5.1961 -0.5 0.0 0
M  V30 7 C 6.9282 -0.4999 0.0 0
M  V30 8 N 4.3301 0.0 0.0 0
M  V30 9 C 3.4641 1.5 0.0 0
M  V30 10 C 4.3301 2.9999 0.0 0
M  V30 11 C 5.1961 -1.5 0.0 0
M  V30 12 C 6.9282 -1.4999 0.0 0
M  V30 13 C 3.4641 -0.5 0.0 0
M  V30 14 C 3.4641 2.5 0.0 0
M  V30 15 C 6.0621 -1.9999 0.0 0
M  V30 16 C 2.598 0.0 0.0 0
M  V30 17 C 2.598 3.0 0.0 0
M  V30 18 C 1.732 -0.5 0.0 0
M  V30 19 F 2.098 2.1339 0.0 0
M  V30 20 F 1.732 3.5 0.0 0
M  V30 21 F 3.098 3.866 0.0 0
M  V30 22 N 0.866 0.0 0.0 0
M  V30 23 C 0.866 1.0 0.0 0
M  V30 24 C 0.0 -0.5 0.0 0
M  V30 END ATOM
M  V30 BEGIN BOND
M  V30 1 1 1 2
M  V30 2 1 1 3
M  V30 3 2 2 4
M  V30 4 1 2 5
M  V30 5 2 3 6
M  V30 6 1 3 7
M  V30 7 1 4 8
M  V30 8 1 4 9
M  V30 9 2 5 10
M  V30 10 1 6 11
M  V30 11 2 7 12
M  V30 12 1 8 13
M  V30 13 2 9 14
M  V30 14 2 11 15
M  V30 15 1 13 16
M  V30 16 1 14 17
M  V30 17 1 16 18
M  V30 18 1 17 19
M  V30 19 1 17 20
M  V30 20 1 17 21
M  V30 21 1 18 22
M  V30 22 1 22 23
M  V30 23 1 22 24
M  V30 24 1 6 8
M  V30 25 1 10 14
M  V30 26 1 12 15
M  V30 END BOND
M  V30 END CTAB
M  END
>  <Molecule Name>


>  <status>
DISCONTINUED

>  <cas>
146-54-3

>  <name>
TRIFLUPROMAZINE

>  <ID>
220

>  <Smiles>
CN(C)CCCN1c(cc(C(F)(F)F)cc2)c2Sc2c1cccc2

$$$$

Actelion Java MolfileCreator 2.0

  0  0  0  0  0  0              0 V3000
M  V30 BEGIN CTAB
M  V30 COUNTS 17 18 0 0 0
M  V30 BEGIN ATOM
M  V30 1 Cl 1.299 0.0 0.0 0
M  V30 2 C 0.0 -0.75 0.0 0
M  V30 3 C -1.299 0.0 0.0 0
M  V30 4 C 0.0 -2.25 0.0 0
M  V30 5 S -1.299 1.5 0.0 0
M  V30 6 C -2.598 -0.75 0.0 0
M  V30 7 C -1.299 -3.0 0.0 0
M  V30 8 O 0.2009 1.5 0.0 0
M  V30 9 O -2.799 1.5 0.0 0
M  V30 10 N -1.299 3.0 0.0 0
M  V30 11 C -2.598 -2.25 0.0 0
M  V30 12 N -1.299 -4.5 0.0 0
M  V30 13 S -3.8971 -3.0 0.0 0
M  V30 14 C -2.598 -5.25 0.0 0
M  V30 15 O -4.647 -1.7009 0.0 0
M  V30 16 O -5.397 -3.0 0.0 0
M  V30 17 N -3.8971 -4.5 0.0 0
M  V30 END ATOM
M  V30 BEGIN BOND
M  V30 1 1 1 2
M  V30 2 2 2 3
M  V30 3 1 2 4
M  V30 4 1 3 5
M  V30 5 1 3 6
M  V30 6 2 4 7
M  V30 7 2 5 8
M  V30 8 2 5 9
M  V30 9 1 5 10
M  V30 10 2 6 11
M  V30 11 1 7 12
M  V30 12 1 11 13
M  V30 13 1 12 14
M  V30 14 2 13 15
M  V30 15 2 13 16
M  V30 16 1 13 17
M  V30 17 1 7 11
M  V30 18 2 14 17
M  V30 END BOND
M  V30 END CTAB
M  END
>  <Molecule Name>


>  <status>
-

>  <cas>
58-94-6

>  <name>
CHLOROTHIAZIDE

>  <ID>
221

>  <Smiles>
NS(c(cc(c(NC=N1)c2)S1(=O)=O)c2Cl)(=O)=O

$$$$

Actelion Java MolfileCreator 2.0

  0  0  0  0  0  0              0 V3000
M  V30 BEGIN CTAB
M  V30 COUNTS 27 30 0 0 0
M  V30 BEGIN ATOM
M  V30 1 O 9.871 -9.8572 0.0 0
M  V30 2 C 8.8635 -8.7382 0.0 0
M  V30 3 C 7.3907 -9.0513 0.0 0
M  V30 4 C 9.3288 -7.3062 0.0 0
M  V30 5 C 6.3832 -7.9323 0.0 0
M  V30 6 C 8.3213 -6.1873 0.0 0
M  V30 7 C 6.8485 -6.5004 0.0 0 CFG=2
M  V30 8 C 4.9105 -8.2454 0.0 0 CFG=2
M  V30 9 C 5.841 -5.3814 0.0 0 CFG=1
M  V30 10 C 7.3138 -5.0684 0.0 0
M  V30 11 C 3.903 -7.1265 0.0 0
M  V30 12 C 4.4452 -9.6774 0.0 0
M  V30 13 C 6.3063 -3.9494 0.0 0 CFG=1
M  V30 14 C 4.3682 -5.6945 0.0 0 CFG=1
M  V30 15 O 7.7791 -3.6364 0.0 0
M  V30 16 C 5.2988 -2.8305 0.0 0
M  V30 17 C 3.3607 -4.5755 0.0 0 CFG=1
M  V30 18 C 3.826 -3.1435 0.0 0 CFG=1
M  V30 19 C 1.855 -4.5755 0.0 0
M  V30 20 C 2.6079 -2.2585 0.0 0 CFG=1
M  V30 21 C 4.2596 -1.7317 0.0 0
M  V30 22 C 1.3898 -3.1435 0.0 0
M  V30 23 O 3.7083 -1.4531 0.0 0
M  V30 24 C 2.6079 -0.7528 0.0 0
M  V30 25 O 3.9119 0.0 0.0 0
M  V30 26 C 1.3039 0.0 0.0 0
M  V30 27 O 0.0 -0.7528 0.0 0
M  V30 END ATOM
M  V30 BEGIN BOND
M  V30 1 2 1 2
M  V30 2 1 2 3
M  V30 3 1 2 4
M  V30 4 2 3 5
M  V30 5 2 4 6
M  V30 6 1 7 5
M  V30 7 1 8 5
M  V30 8 1 9 7
M  V30 9 1 7 10 CFG=3
M  V30 10 1 8 11
M  V30 11 1 8 12 CFG=1
M  V30 12 1 9 13 CFG=3
M  V30 13 1 14 9
M  V30 14 1 13 15 CFG=3
M  V30 15 1 13 16
M  V30 16 1 17 14
M  V30 17 1 18 16
M  V30 18 1 17 19 CFG=3
M  V30 19 1 20 18
M  V30 20 1 18 21 CFG=3
M  V30 21 1 19 22
M  V30 22 1 20 23 CFG=1
M  V30 23 1 20 24
M  V30 24 2 24 25
M  V30 25 1 24 26
M  V30 26 1 26 27
M  V30 27 1 6 7
M  V30 28 1 14 11 CFG=1
M  V30 29 1 17 18
M  V30 30 1 20 22
M  V30 END BOND
M  V30 BEGIN COLLECTION
M  V30 MDLV30/STERAC1 ATOMS=(8 7 8 9 13 14 17 18 20)
M  V30 END COLLECTION
M  V30 END CTAB
M  END
>  <Molecule Name>


>  <status>
-

>  <cas>
83-43-2

>  <name>
METHYLPREDNISOLONE

>  <ID>
222

>  <Smiles>
C[C@@H](C[C@@H]([C@H](CC1)[C@](C)(C[C@@H]2O)[C@]1(C(CO)=O)O)[C@H]2[C@@]1(C)C=C2)C1=CC2=O

$$$$

Actelion Java MolfileCreator 2.0

  0  0  0  0  0  0              0 V3000
M  V30 BEGIN CTAB
M  V30 COUNTS 34 37 0 0 0
M  V30 BEGIN ATOM
M  V30 1 O 1.8632 9.0978 0.0 0
M  V30 2 C 2.87 7.9797 0.0 0
M  V30 3 C 4.3417 8.2925 0.0 0
M  V30 4 C 2.4051 6.5487 0.0 0
M  V30 5 C 5.3485 7.1744 0.0 0
M  V30 6 C 3.4118 5.4306 0.0 0
M  V30 7 C 4.8836 5.7434 0.0 0 CFG=2
M  V30 8 C 6.8203 7.4872 0.0 0 CFG=2
M  V30 9 C 5.8904 4.6252 0.0 0 CFG=1
M  V30 10 C 4.4186 4.3124 0.0 0
M  V30 11 C 7.827 6.369 0.0 0
M  V30 12 C 7.2852 8.9182 0.0 0
M  V30 13 C 5.4254 3.1943 0.0 0 CFG=1
M  V30 14 C 7.3621 4.9381 0.0 0 CFG=1
M  V30 15 O 3.9537 2.8814 0.0 0
M  V30 16 C 6.4322 2.0761 0.0 0
M  V30 17 C 8.3689 3.8199 0.0 0 CFG=1
M  V30 18 C 7.9039 2.389 0.0 0 CFG=1
M  V30 19 C 9.8735 3.8199 0.0 0
M  V30 20 C 9.1212 1.5046 0.0 0 CFG=1
M  V30 21 C 7.4706 0.9781 0.0 0
M  V30 22 C 10.3384 2.389 0.0 0
M  V30 23 O 8.0215 0.6997 0.0 0
M  V30 24 C 9.1212 0.0 0.0 0
M  V30 25 O 10.4242 -0.7523 0.0 0
M  V30 26 C 7.8181 -0.7523 0.0 0
M  V30 27 O 6.5151 0.0 0.0 0
M  V30 28 C 5.2121 -0.7523 0.0 0
M  V30 29 O 5.2121 -2.2569 0.0 0
M  V30 30 C 3.909 0.0 0.0 0
M  V30 31 C 2.606 -0.7523 0.0 0
M  V30 32 C 1.303 0.0 0.0 0
M  V30 33 O 1.303 1.5046 0.0 0
M  V30 34 O 0.0 -0.7523 0.0 0 CHG=-1
M  V30 END ATOM
M  V30 BEGIN BOND
M  V30 1 2 1 2
M  V30 2 1 2 3
M  V30 3 1 2 4
M  V30 4 2 3 5
M  V30 5 2 4 6
M  V30 6 1 7 5
M  V30 7 1 8 5
M  V30 8 1 9 7
M  V30 9 1 7 10 CFG=3
M  V30 10 1 8 11
M  V30 11 1 8 12 CFG=1
M  V30 12 1 9 13 CFG=3
M  V30 13 1 14 9
M  V30 14 1 13 15 CFG=3
M  V30 15 1 13 16
M  V30 16 1 17 14
M  V30 17 1 18 16
M  V30 18 1 17 19 CFG=3
M  V30 19 1 20 18
M  V30 20 1 18 21 CFG=3
M  V30 21 1 19 22
M  V30 22 1 20 23 CFG=1
M  V30 23 1 20 24
M  V30 24 2 24 25
M  V30 25 1 24 26
M  V30 26 1 26 27
M  V30 27 1 27 28
M  V30 28 2 28 29
M  V30 29 1 28 30
M  V30 30 1 30 31
M  V30 31 1 31 32
M  V30 32 2 32 33
M  V30 33 1 32 34
M  V30 34 1 6 7
M  V30 35 1 14 11 CFG=1
M  V30 36 1 17 18
M  V30 37 1 20 22
M  V30 END BOND
M  V30 BEGIN COLLECTION
M  V30 MDLV30/STERAC1 ATOMS=(8 7 8 9 13 14 17 18 20)
M  V30 END COLLECTION
M  V30 END CTAB
M  END
>  <Molecule Name>


>  <status>
-

>  <cas>
2921-57-5

>  <name>
METHYLPREDNISOLONE SUCCINATE

>  <ID>
223

>  <Smiles>
C[C@@H](C[C@@H]([C@H](CC1)[C@](C)(C[C@@H]2O)[C@]1(C(COC(CCC([O-])=O)=O)=O)O)[C@H]2[C@@]1(C)C=C2)C1=CC2=O

$$$$

Actelion Java MolfileCreator 2.0

  0  0  0  0  0  0              0 V3000
M  V30 BEGIN CTAB
M  V30 COUNTS 28 31 0 0 0
M  V30 BEGIN ATOM
M  V30 1 F 5.0694 -3.4206 0.0 0
M  V30 2 C 3.8793 -3.574 0.0 0 CFG=2
M  V30 3 C 4.5484 -4.3172 0.0 0 CFG=2
M  V30 4 C 4.1883 -2.623 0.0 0 CFG=1
M  V30 5 C 2.9011 -3.7819 0.0 0 CFG=2
M  V30 6 C 4.2394 -5.2682 0.0 0
M  V30 7 C 5.5266 -4.1093 0.0 0
M  V30 8 C 4.8574 -3.1161 0.0 0
M  V30 9 O 5.1664 -2.4151 0.0 0
M  V30 10 C 3.5192 -1.8798 0.0 0
M  V30 11 C 2.232 -3.0388 0.0 0 CFG=1
M  V30 12 C 2.5921 -4.733 0.0 0
M  V30 13 C 4.9085 -6.0114 0.0 0
M  V30 14 C 3.2612 -5.4761 0.0 0
M  V30 15 C 6.1957 -4.8524 0.0 0
M  V30 16 C 2.541 -2.0877 0.0 0 CFG=1
M  V30 17 C 1.232 -3.0388 0.0 0
M  V30 18 C 5.8867 -5.8035 0.0 0
M  V30 19 C 1.732 -1.5 0.0 0 CFG=1
M  V30 20 C 2.9091 -1.1905 0.0 0
M  V30 21 C 0.923 -2.0877 0.0 0 CFG=2
M  V30 22 O 6.5558 -6.5466 0.0 0
M  V30 23 O 2.5429 -1.0055 0.0 0
M  V30 24 C 1.732 -0.5 0.0 0
M  V30 25 O -0.028 -1.7787 0.0 0
M  V30 26 O 2.598 0.0 0.0 0
M  V30 27 C 0.866 0.0 0.0 0
M  V30 28 O 0.0 -0.5 0.0 0
M  V30 END ATOM
M  V30 BEGIN BOND
M  V30 1 1 2 1 CFG=1
M  V30 2 1 3 2
M  V30 3 1 4 2
M  V30 4 1 5 2
M  V30 5 1 3 6
M  V30 6 1 3 7
M  V30 7 1 3 8 CFG=3
M  V30 8 1 4 9 CFG=3
M  V30 9 1 4 10
M  V30 10 1 11 5
M  V30 11 1 5 12 CFG=1
M  V30 12 2 6 13
M  V30 13 1 6 14
M  V30 14 2 7 15
M  V30 15 1 16 10
M  V30 16 1 11 17 CFG=3
M  V30 17 1 13 18
M  V30 18 1 19 16
M  V30 19 1 16 20 CFG=3
M  V30 20 1 21 17
M  V30 21 2 18 22
M  V30 22 1 19 23 CFG=1
M  V30 23 1 19 24
M  V30 24 1 21 25 CFG=1
M  V30 25 2 24 26
M  V30 26 1 24 27
M  V30 27 1 27 28
M  V30 28 1 11 16
M  V30 29 1 12 14
M  V30 30 1 15 18
M  V30 31 1 19 21
M  V30 END BOND
M  V30 BEGIN COLLECTION
M  V30 MDLV30/STERAC1 ATOMS=(8 2 3 4 5 11 16 19 21)
M  V30 END COLLECTION
M  V30 END CTAB
M  END
>  <Molecule Name>


>  <status>
DISCONTINUED

>  <cas>
124-94-7

>  <name>
TRIAMCINOLONE

>  <ID>
224

>  <Smiles>
C[C@](C[C@@H]1O)([C@@H](C[C@H]2O)[C@H](CCC([C@]3(C)C=C4)=CC4=O)[C@@]13F)[C@]2(C(CO)=O)O

$$$$

Actelion Java MolfileCreator 2.0

  0  0  0  0  0  0              0 V3000
M  V30 BEGIN CTAB
M  V30 COUNTS 31 35 0 0 0
M  V30 BEGIN ATOM
M  V30 1 F -0.505 2.2452 0.0 0
M  V30 2 C 0.6793 2.2871 0.0 0 CFG=2
M  V30 3 C 0.0915 3.0961 0.0 0 CFG=2
M  V30 4 C 0.2726 1.3736 0.0 0 CFG=1
M  V30 5 C 1.6738 2.3916 0.0 0 CFG=2
M  V30 6 C 0.4983 4.0097 0.0 0
M  V30 7 C -0.9029 2.9916 0.0 0
M  V30 8 C -0.2918 1.9337 0.0 0
M  V30 9 O -0.7218 1.269 0.0 0
M  V30 10 C 0.8604 0.5646 0.0 0
M  V30 11 C 2.2616 1.5826 0.0 0 CFG=1
M  V30 12 C 2.0806 3.3052 0.0 0
M  V30 13 C -0.0894 4.8187 0.0 0
M  V30 14 C 1.4928 4.1142 0.0 0
M  V30 15 C -1.4907 3.8006 0.0 0
M  V30 16 C 1.8549 0.6691 0.0 0 CFG=1
M  V30 17 C 3.2561 1.4781 0.0 0
M  V30 18 C -1.0839 4.7142 0.0 0
M  V30 19 C 2.598 0.0 0.0 0 CFG=1
M  V30 20 C 1.5334 -0.1695 0.0 0
M  V30 21 C 3.4641 0.5 0.0 0 CFG=2
M  V30 22 O -1.6717 5.5232 0.0 0
M  V30 23 O 2.8059 -0.9781 0.0 0
M  V30 24 C 1.7615 -0.549 0.0 0
M  V30 25 O 4.2072 -0.1691 0.0 0
M  V30 26 C 3.8005 -1.0826 0.0 0
M  V30 27 O 1.732 -1.5 0.0 0
M  V30 28 C 0.866 0.0 0.0 0
M  V30 29 C 3.8004 -2.0826 0.0 0
M  V30 30 C 4.6665 -1.5826 0.0 0
M  V30 31 O 0.0 -0.5 0.0 0
M  V30 END ATOM
M  V30 BEGIN BOND
M  V30 1 1 2 1 CFG=1
M  V30 2 1 3 2
M  V30 3 1 4 2
M  V30 4 1 5 2
M  V30 5 1 3 6
M  V30 6 1 3 7
M  V30 7 1 3 8 CFG=3
M  V30 8 1 4 9 CFG=3
M  V30 9 1 4 10
M  V30 10 1 11 5
M  V30 11 1 5 12 CFG=1
M  V30 12 2 6 13
M  V30 13 1 6 14
M  V30 14 2 7 15
M  V30 15 1 16 10
M  V30 16 1 11 17 CFG=3
M  V30 17 1 13 18
M  V30 18 1 19 16
M  V30 19 1 16 20 CFG=3
M  V30 20 1 21 17
M  V30 21 2 18 22
M  V30 22 1 19 23
M  V30 23 1 19 24 CFG=3
M  V30 24 1 21 25 CFG=1
M  V30 25 1 23 26
M  V30 26 2 24 27
M  V30 27 1 24 28
M  V30 28 1 26 29
M  V30 29 1 26 30
M  V30 30 1 28 31
M  V30 31 1 11 16
M  V30 32 1 12 14
M  V30 33 1 15 18
M  V30 34 1 19 21
M  V30 35 1 25 26
M  V30 END BOND
M  V30 BEGIN COLLECTION
M  V30 MDLV30/STERAC1 ATOMS=(8 2 3 4 5 11 16 19 21)
M  V30 END COLLECTION
M  V30 END CTAB
M  END
>  <Molecule Name>


>  <status>
-

>  <cas>
76-25-5

>  <name>
TRIAMCINOLONE ACETONIDE

>  <ID>
225

>  <Smiles>
CC(C)(O[C@@H]1C[C@@H]([C@H](CCC([C@]2(C)C=C3)=CC3=O)[C@@]22F)[C@]3(C)C[C@@H]2O)O[C@@]13C(CO)=O

$$$$

Actelion Java MolfileCreator 2.0

  0  0  0  0  0  0              0 V3000
M  V30 BEGIN CTAB
M  V30 COUNTS 34 37 0 0 0
M  V30 BEGIN ATOM
M  V30 1 F 9.7643 -4.9897 0.0 0
M  V30 2 C 8.4584 -5.3874 0.0 0 CFG=2
M  V30 3 C 9.467 -6.5076 0.0 0 CFG=2
M  V30 4 C 8.9242 -3.9538 0.0 0 CFG=1
M  V30 5 C 6.9839 -5.7008 0.0 0 CFG=2
M  V30 6 C 9.0012 -7.9412 0.0 0
M  V30 7 C 10.9414 -6.1942 0.0 0
M  V30 8 C 10.2698 -5.2425 0.0 0
M  V30 9 O 10.3986 -3.6404 0.0 0
M  V30 10 C 7.9155 -2.8336 0.0 0
M  V30 11 C 5.9753 -4.5806 0.0 0 CFG=1
M  V30 12 C 6.5181 -7.1344 0.0 0
M  V30 13 C 10.0098 -9.0614 0.0 0
M  V30 14 C 7.5268 -8.2546 0.0 0
M  V30 15 C 11.95 -7.3144 0.0 0
M  V30 16 C 6.4411 -3.147 0.0 0 CFG=1
M  V30 17 C 4.4679 -4.5806 0.0 0
M  V30 18 C 11.4842 -8.748 0.0 0
M  V30 19 C 5.2216 -2.261 0.0 0 CFG=1
M  V30 20 C 6.9959 -1.7946 0.0 0
M  V30 21 C 4.0021 -3.147 0.0 0 CFG=2
M  V30 22 O 12.4929 -9.8682 0.0 0
M  V30 23 O 6.444 -1.5157 0.0 0
M  V30 24 C 5.2216 -0.7536 0.0 0
M  V30 25 O 2.5685 -2.6812 0.0 0
M  V30 26 O 6.527 0.0 0.0 0
M  V30 27 C 3.9162 0.0 0.0 0
M  V30 28 C 1.4484 -3.6898 0.0 0
M  V30 29 O 2.6108 -0.7536 0.0 0
M  V30 30 O 1.7618 -5.1643 0.0 0
M  V30 31 C 0.0148 -3.224 0.0 0
M  V30 32 C 1.3054 0.0 0.0 0
M  V30 33 O 1.3054 1.5073 0.0 0
M  V30 34 C 0.0 -0.7536 0.0 0
M  V30 END ATOM
M  V30 BEGIN BOND
M  V30 1 1 2 1 CFG=1
M  V30 2 1 3 2
M  V30 3 1 4 2
M  V30 4 1 5 2
M  V30 5 1 3 6
M  V30 6 1 3 7
M  V30 7 1 3 8 CFG=3
M  V30 8 1 4 9 CFG=3
M  V30 9 1 4 10
M  V30 10 1 11 5
M  V30 11 1 5 12 CFG=1
M  V30 12 2 6 13
M  V30 13 1 6 14
M  V30 14 2 7 15
M  V30 15 1 16 10
M  V30 16 1 11 17 CFG=3
M  V30 17 1 13 18
M  V30 18 1 19 16
M  V30 19 1 16 20 CFG=3
M  V30 20 1 21 17
M  V30 21 2 18 22
M  V30 22 1 19 23 CFG=1
M  V30 23 1 19 24
M  V30 24 1 21 25 CFG=1
M  V30 25 2 24 26
M  V30 26 1 24 27
M  V30 27 1 25 28
M  V30 28 1 27 29
M  V30 29 2 28 30
M  V30 30 1 28 31
M  V30 31 1 29 32
M  V30 32 2 32 33
M  V30 33 1 32 34
M  V30 34 1 11 16
M  V30 35 1 12 14
M  V30 36 1 15 18
M  V30 37 1 19 21
M  V30 END BOND
M  V30 BEGIN COLLECTION
M  V30 MDLV30/STERAC1 ATOMS=(8 2 3 4 5 11 16 19 21)
M  V30 END COLLECTION
M  V30 END CTAB
M  END
>  <Molecule Name>


>  <status>
DISCONTINUED

>  <cas>
67-78-7

>  <name>
TRIAMCINOLONE DIACETATE

>  <ID>
226

>  <Smiles>
C[C@](C[C@@H]1O)([C@@H](C[C@H]2OC(C)=O)[C@H](CCC([C@]3(C)C=C4)=CC4=O)[C@@]13F)[C@]2(C(COC(C)=O)=O)O

$$$$

Actelion Java MolfileCreator 2.0

  0  0  0  0  0  0              0 V3000
M  V30 BEGIN CTAB
M  V30 COUNTS 42 42 0 0 0
M  V30 BEGIN ATOM
M  V30 1 O 25.9807 -0.5 0.0 0
M  V30 2 C 25.1147 0.0 0.0 0
M  V30 3 O 24.2487 -0.5 0.0 0
M  V30 4 C 25.1147 0.9999 0.0 0
M  V30 5 C 23.3826 0.0 0.0 0
M  V30 6 C 25.9807 1.5 0.0 0
M  V30 7 C 24.2487 1.4999 0.0 0
M  V30 8 C 22.5166 -0.5 0.0 0
M  V30 9 C 25.9807 2.5 0.0 0
M  V30 10 C 24.2487 2.5 0.0 0
M  V30 11 O 21.6506 0.0 0.0 0
M  V30 12 C 25.1147 3.0 0.0 0
M  V30 13 C 20.7846 -0.5 0.0 0
M  V30 14 N 25.1147 4.0 0.0 0
M  V30 15 C 19.9185 0.0 0.0 0
M  V30 16 C 25.9807 4.5 0.0 0
M  V30 17 O 19.0525 -0.5 0.0 0
M  V30 18 C 25.9807 5.5 0.0 0
M  V30 19 C 18.1865 0.0 0.0 0
M  V30 20 C 26.8467 6.0 0.0 0
M  V30 21 C 17.3205 -0.5 0.0 0
M  V30 22 C 26.8467 7.0 0.0 0
M  V30 23 O 16.4544 0.0 0.0 0
M  V30 24 C 15.5884 -0.5 0.0 0
M  V30 25 C 14.7224 0.0 0.0 0
M  V30 26 O 13.8564 -0.5 0.0 0
M  V30 27 C 12.9903 0.0 0.0 0
M  V30 28 C 12.1243 -0.5 0.0 0
M  V30 29 O 11.2583 0.0 0.0 0
M  V30 30 C 10.3923 -0.5 0.0 0
M  V30 31 C 9.5262 0.0 0.0 0
M  V30 32 O 8.6602 -0.5 0.0 0
M  V30 33 C 7.7942 0.0 0.0 0
M  V30 34 C 6.9282 -0.5 0.0 0
M  V30 35 O 6.0621 0.0 0.0 0
M  V30 36 C 5.1961 -0.5 0.0 0
M  V30 37 C 4.3301 0.0 0.0 0
M  V30 38 O 3.4641 -0.5 0.0 0
M  V30 39 C 2.598 0.0 0.0 0
M  V30 40 C 1.732 -0.5 0.0 0
M  V30 41 O 0.866 0.0 0.0 0
M  V30 42 C 0.0 -0.5 0.0 0
M  V30 END ATOM
M  V30 BEGIN BOND
M  V30 1 2 1 2
M  V30 2 1 2 3
M  V30 3 1 2 4
M  V30 4 1 3 5
M  V30 5 2 4 6
M  V30 6 1 4 7
M  V30 7 1 5 8
M  V30 8 1 6 9
M  V30 9 2 7 10
M  V30 10 1 8 11
M  V30 11 2 9 12
M  V30 12 1 11 13
M  V30 13 1 12 14
M  V30 14 1 13 15
M  V30 15 1 14 16
M  V30 16 1 15 17
M  V30 17 1 16 18
M  V30 18 1 17 19
M  V30 19 1 18 20
M  V30 20 1 19 21
M  V30 21 1 20 22
M  V30 22 1 21 23
M  V30 23 1 23 24
M  V30 24 1 24 25
M  V30 25 1 25 26
M  V30 26 1 26 27
M  V30 27 1 27 28
M  V30 28 1 28 29
M  V30 29 1 29 30
M  V30 30 1 30 31
M  V30 31 1 31 32
M  V30 32 1 32 33
M  V30 33 1 33 34
M  V30 34 1 34 35
M  V30 35 1 35 36
M  V30 36 1 36 37
M  V30 37 1 37 38
M  V30 38 1 38 39
M  V30 39 1 39 40
M  V30 40 1 40 41
M  V30 41 1 41 42
M  V30 42 1 10 12
M  V30 END BOND
M  V30 END CTAB
M  END
>  <Molecule Name>


>  <status>
-

>  <cas>
104-31-4

>  <name>
BENZONATATE

>  <ID>
227

>  <Smiles>
CCCCNc(cc1)ccc1C(OCCOCCOCCOCCOCCOCCOCCOCCOCCOC)=O

$$$$

Actelion Java MolfileCreator 2.0

  0  0  0  0  0  0              0 V3000
M  V30 BEGIN CTAB
M  V30 COUNTS 21 23 0 0 0
M  V30 BEGIN ATOM
M  V30 1 O 3.4641 -1.4999 0.0 0
M  V30 2 C 3.4641 -0.4999 0.0 0
M  V30 3 C 4.3301 0.0 0.0 0
M  V30 4 C 2.598 0.0 0.0 0
M  V30 5 C 4.3301 1.0 0.0 0
M  V30 6 C 5.1961 -0.4999 0.0 0
M  V30 7 C 2.598 1.0 0.0 0
M  V30 8 C 1.732 -0.5 0.0 0 CFG=2
M  V30 9 O 3.4641 1.5 0.0 0
M  V30 10 C 5.1961 1.5 0.0 0
M  V30 11 C 6.0621 0.0 0.0 0
M  V30 12 O 1.732 1.4999 0.0 0
M  V30 13 C 1.732 -1.5 0.0 0
M  V30 14 C 0.866 0.0 0.0 0
M  V30 15 C 6.0621 0.9999 0.0 0
M  V30 16 C 0.866 -1.9999 0.0 0
M  V30 17 C 2.598 -2.0 0.0 0
M  V30 18 C 0.0 -0.5 0.0 0
M  V30 19 C 0.866 -2.9999 0.0 0
M  V30 20 C 2.598 -3.0 0.0 0
M  V30 21 C 1.732 -3.5 0.0 0
M  V30 END ATOM
M  V30 BEGIN BOND
M  V30 1 2 1 2
M  V30 2 1 2 3
M  V30 3 1 2 4
M  V30 4 2 3 5
M  V30 5 1 3 6
M  V30 6 2 4 7
M  V30 7 1 8 4
M  V30 8 1 5 9
M  V30 9 1 5 10
M  V30 10 2 6 11
M  V30 11 1 7 12
M  V30 12 1 8 13
M  V30 13 1 8 14 CFG=3
M  V30 14 2 10 15
M  V30 15 2 13 16
M  V30 16 1 13 17
M  V30 17 1 14 18
M  V30 18 1 16 19
M  V30 19 2 17 20
M  V30 20 2 19 21
M  V30 21 1 7 9
M  V30 22 1 11 15
M  V30 23 1 20 21
M  V30 END BOND
M  V30 BEGIN COLLECTION
M  V30 MDLV30/STERAC1 ATOMS=(1 8)
M  V30 END COLLECTION
M  V30 END CTAB
M  END
>  <Molecule Name>


>  <status>
DISCONTINUED

>  <cas>
435-97-2

>  <name>
PHENPROCOUMON

>  <ID>
228

>  <Smiles>
CCC(c1ccccc1)C1=C(O)Oc(cccc2)c2C1=O

$$$$
_c001
Actelion Java MolfileCreator 2.0

  0  0  0  0  0  0              0 V3000
M  V30 BEGIN CTAB
M  V30 COUNTS 20 23 0 0 0
M  V30 BEGIN ATOM
M  V30 1 O 0.866 0.0 0.0 0
M  V30 2 C 1.732 -0.5 0.0 0
M  V30 3 C 0.0 -0.5 0.0 0
M  V30 4 C 1.732 -1.5 0.0 0
M  V30 5 C 2.598 0.0 0.0 0
M  V30 6 C 2.598 -2.0 0.0 0
M  V30 7 C 3.4641 -0.5 0.0 0
M  V30 8 C 3.4641 -1.5 0.0 0
M  V30 9 C 2.598 -3.0 0.0 0 CFG=2
M  V30 10 C 4.3301 -2.0 0.0 0
M  V30 11 C 3.4641 -3.5 0.0 0 CFG=1
M  V30 12 C 2.598 -4.3333 0.0 0
M  V30 13 C 1.732 -3.4999 0.0 0
M  V30 14 C 4.3301 -3.0 0.0 0 CFG=1
M  V30 15 C 3.4641 -4.4084 0.0 0
M  V30 16 C 3.4851 -4.8829 0.0 0
M  V30 17 C 1.732 -4.4999 0.0 0
M  V30 18 N 4.3301 -4.3333 0.0 0
M  V30 19 C 2.598 -5.0 0.0 0
M  V30 20 C 5.1961 -4.8333 0.0 0
M  V30 END ATOM
M  V30 BEGIN BOND
M  V30 1 1 1 2
M  V30 2 1 1 3
M  V30 3 2 2 4
M  V30 4 1 2 5
M  V30 5 1 4 6
M  V30 6 2 5 7
M  V30 7 2 6 8
M  V30 8 1 9 6
M  V30 9 1 8 10
M  V30 10 1 11 9
M  V30 11 1 9 12 CFG=3
M  V30 12 1 9 13
M  V30 13 1 14 10
M  V30 14 1 11 15 CFG=1
M  V30 15 1 12 16
M  V30 16 1 13 17
M  V30 17 1 14 18 CFG=3
M  V30 18 1 15 19
M  V30 19 1 18 20
M  V30 20 1 7 8
M  V30 21 1 11 14
M  V30 22 1 16 18
M  V30 23 1 17 19
M  V30 END BOND
M  V30 BEGIN COLLECTION
M  V30 MDLV30/STERAC1 ATOMS=(3 9 11 14)
M  V30 END COLLECTION
M  V30 END CTAB
M  END
>  <Molecule Name>
_c001

>  <status>
-

>  <cas>
125-71-3

>  <name>
DEXTROMETHORPHAN

>  <ID>
229

>  <Smiles>
CN(CC1)[C@@H](C2)[C@@H](CCCC3)[C@@]13c1c2ccc(OC)c1

$$$$

Actelion Java MolfileCreator 2.0

  0  0  0  0  0  0              0 V3000
M  V30 BEGIN CTAB
M  V30 COUNTS 17 18 0 0 0
M  V30 BEGIN ATOM
M  V30 1 Cl 1.299 0.0 0.0 0
M  V30 2 C 0.0 -0.75 0.0 0
M  V30 3 C -1.299 0.0 0.0 0
M  V30 4 C 0.0 -2.25 0.0 0
M  V30 5 C -2.598 -0.75 0.0 0
M  V30 6 C -1.299 -3.0 0.0 0
M  V30 7 C -2.598 -2.25 0.0 0
M  V30 8 C -3.8971 -3.0 0.0 0 CFG=2
M  V30 9 S -5.1961 -2.25 0.0 0
M  V30 10 N -3.8971 -4.5 0.0 0
M  V30 11 O -4.4461 -0.951 0.0 0
M  V30 12 O -5.9461 -0.951 0.0 0
M  V30 13 C -6.4952 -3.0 0.0 0
M  V30 14 C -5.1961 -5.25 0.0 0
M  V30 15 C -2.598 -5.25 0.0 0
M  V30 16 C -6.4952 -4.5 0.0 0
M  V30 17 O -5.1961 -6.75 0.0 0
M  V30 END ATOM
M  V30 BEGIN BOND
M  V30 1 1 1 2
M  V30 2 2 2 3
M  V30 3 1 2 4
M  V30 4 1 3 5
M  V30 5 2 4 6
M  V30 6 2 5 7
M  V30 7 1 8 7 CFG=1
M  V30 8 1 8 9
M  V30 9 1 8 10
M  V30 10 2 9 11
M  V30 11 2 9 12
M  V30 12 1 9 13
M  V30 13 1 10 14
M  V30 14 1 10 15
M  V30 15 1 13 16
M  V30 16 2 14 17
M  V30 17 1 6 7
M  V30 18 1 14 16
M  V30 END BOND
M  V30 BEGIN COLLECTION
M  V30 MDLV30/STERAC1 ATOMS=(1 8)
M  V30 END COLLECTION
M  V30 END CTAB
M  END
>  <Molecule Name>


>  <status>
DISCONTINUED

>  <cas>
80-77-3

>  <name>
CHLORMEZANONE

>  <ID>
230

>  <Smiles>
CN(C(c(cc1)ccc1Cl)S(CC1)(=O)=O)C1=O

$$$$

Actelion Java MolfileCreator 2.0

  0  0  0  0  0  0              0 V3000
M  V30 BEGIN CTAB
M  V30 COUNTS 16 17 0 0 0
M  V30 BEGIN ATOM
M  V30 1 O 5.082 2.2205 0.0 0
M  V30 2 N 4.0874 2.1159 0.0 0 CHG=1
M  V30 3 O 3.4997 2.9249 0.0 0 CHG=-1
M  V30 4 C 3.6807 1.2024 0.0 0
M  V30 5 O 2.7026 0.9945 0.0 0
M  V30 6 C 4.1807 0.3364 0.0 0
M  V30 7 C 2.598 0.0 0.0 0
M  V30 8 C 3.5116 -0.4067 0.0 0
M  V30 9 C 1.732 -0.5 0.0 0
M  V30 10 N 0.866 0.0 0.0 0
M  V30 11 N 0.0 -0.5 0.0 0
M  V30 12 C -0.9135 -0.0932 0.0 0
M  V30 13 C -0.1045 -1.4945 0.0 0
M  V30 14 O -1.1214 0.8848 0.0 0
M  V30 15 O -1.5826 -0.8364 0.0 0
M  V30 16 C -1.0826 -1.7024 0.0 0
M  V30 END ATOM
M  V30 BEGIN BOND
M  V30 1 2 1 2
M  V30 2 1 2 3
M  V30 3 1 2 4
M  V30 4 1 4 5
M  V30 5 2 4 6
M  V30 6 1 5 7
M  V30 7 1 6 8
M  V30 8 1 7 9
M  V30 9 2 9 10
M  V30 10 1 10 11
M  V30 11 1 11 12
M  V30 12 1 11 13
M  V30 13 2 12 14
M  V30 14 1 12 15
M  V30 15 1 13 16
M  V30 16 2 7 8
M  V30 17 1 15 16
M  V30 END BOND
M  V30 END CTAB
M  END
>  <Molecule Name>


>  <status>
DISCONTINUED

>  <cas>
67-45-8

>  <name>
FURAZOLIDONE

>  <ID>
231

>  <Smiles>
[O-][N+](c1ccc(/C=N/N(CCO2)C2=O)o1)=O

$$$$

Actelion Java MolfileCreator 2.0

  0  0  0  0  0  0              0 V3000
M  V30 BEGIN CTAB
M  V30 COUNTS 11 12 0 0 0
M  V30 BEGIN ATOM
M  V30 1 Cl 3.9487 2.9344 0.0 0
M  V30 2 C 3.4487 2.0684 0.0 0
M  V30 3 C 2.4487 2.0684 0.0 0
M  V30 4 C 3.9487 1.2024 0.0 0
M  V30 5 C 1.9487 1.2024 0.0 0
M  V30 6 C 3.4487 0.3364 0.0 0
M  V30 7 N 0.9705 0.9945 0.0 0
M  V30 8 C 2.4487 0.3364 0.0 0
M  V30 9 C 0.866 0.0 0.0 0
M  V30 10 O 1.7795 -0.4067 0.0 0
M  V30 11 O 0.0 -0.5 0.0 0
M  V30 END ATOM
M  V30 BEGIN BOND
M  V30 1 1 1 2
M  V30 2 2 2 3
M  V30 3 1 2 4
M  V30 4 1 3 5
M  V30 5 2 4 6
M  V30 6 1 5 7
M  V30 7 2 5 8
M  V30 8 1 7 9
M  V30 9 1 8 10
M  V30 10 2 9 11
M  V30 11 1 6 8
M  V30 12 1 9 10
M  V30 END BOND
M  V30 END CTAB
M  END
>  <Molecule Name>


>  <status>
-

>  <cas>
95-25-0

>  <name>
CHLORZOXAZONE

>  <ID>
232

>  <Smiles>
O=C1Oc(ccc(Cl)c2)c2N1

$$$$

Actelion Java MolfileCreator 2.0

  0  0  0  0  0  0              0 V3000
M  V30 BEGIN CTAB
M  V30 COUNTS 21 23 0 0 0
M  V30 BEGIN ATOM
M  V30 1 S 6.0621 0.9999 0.0 0
M  V30 2 C 5.1961 1.4999 0.0 0
M  V30 3 C 6.0621 0.0 0.0 0
M  V30 4 C 4.3301 0.9999 0.0 0
M  V30 5 C 5.1961 2.4999 0.0 0
M  V30 6 C 5.1961 -0.5 0.0 0
M  V30 7 C 6.9282 -0.4999 0.0 0
M  V30 8 N 4.3301 0.0 0.0 0
M  V30 9 C 3.4641 1.5 0.0 0
M  V30 10 C 4.3301 2.9999 0.0 0
M  V30 11 C 5.1961 -1.5 0.0 0
M  V30 12 C 6.9282 -1.4999 0.0 0
M  V30 13 C 3.4641 -0.5 0.0 0
M  V30 14 C 3.4641 2.5 0.0 0
M  V30 15 C 6.0621 -1.9999 0.0 0
M  V30 16 C 2.598 0.0 0.0 0 CFG=2
M  V30 17 C 1.732 -0.5 0.0 0
M  V30 18 C 2.598 1.0 0.0 0
M  V30 19 N 0.866 0.0 0.0 0
M  V30 20 C 0.866 1.0 0.0 0
M  V30 21 C 0.0 -0.5 0.0 0
M  V30 END ATOM
M  V30 BEGIN BOND
M  V30 1 1 1 2
M  V30 2 1 1 3
M  V30 3 2 2 4
M  V30 4 1 2 5
M  V30 5 2 3 6
M  V30 6 1 3 7
M  V30 7 1 4 8
M  V30 8 1 4 9
M  V30 9 2 5 10
M  V30 10 1 6 11
M  V30 11 2 7 12
M  V30 12 1 8 13
M  V30 13 2 9 14
M  V30 14 2 11 15
M  V30 15 1 16 13
M  V30 16 1 16 17
M  V30 17 1 16 18 CFG=3
M  V30 18 1 17 19
M  V30 19 1 19 20
M  V30 20 1 19 21
M  V30 21 1 6 8
M  V30 22 1 10 14
M  V30 23 1 12 15
M  V30 END BOND
M  V30 BEGIN COLLECTION
M  V30 MDLV30/STERAC1 ATOMS=(1 16)
M  V30 END COLLECTION
M  V30 END CTAB
M  END
>  <Molecule Name>


>  <status>
DISCONTINUED

>  <cas>
84-96-8

>  <name>
TRIMEPRAZINE

>  <ID>
233

>  <Smiles>
CC(CN(C)C)CN1c(cccc2)c2Sc2c1cccc2

$$$$

Actelion Java MolfileCreator 2.0

  0  0  0  0  0  0              0 V3000
M  V30 BEGIN CTAB
M  V30 COUNTS 7 6 0 0 0
M  V30 BEGIN ATOM
M  V30 1 Br 1.732 -0.5 0.0 0
M  V30 2 C 0.866 0.0 0.0 0 CFG=2
M  V30 3 Cl 0.866 1.0 0.0 0
M  V30 4 C 0.0 -0.5 0.0 0
M  V30 5 F 0.4999 -1.366 0.0 0
M  V30 6 F -0.866 -0.9999 0.0 0
M  V30 7 F -0.4999 0.366 0.0 0
M  V30 END ATOM
M  V30 BEGIN BOND
M  V30 1 1 2 1 CFG=1
M  V30 2 1 2 3
M  V30 3 1 2 4
M  V30 4 1 4 5
M  V30 5 1 4 6
M  V30 6 1 4 7
M  V30 END BOND
M  V30 BEGIN COLLECTION
M  V30 MDLV30/STERAC1 ATOMS=(1 2)
M  V30 END COLLECTION
M  V30 END CTAB
M  END
>  <Molecule Name>


>  <status>
DISCONTINUED

>  <cas>
151-67-7

>  <name>
HALOTHANE

>  <ID>
234

>  <Smiles>
FC(C(Cl)Br)(F)F

$$$$

Actelion Java MolfileCreator 2.0

  0  0  0  0  0  0              0 V3000
M  V30 BEGIN CTAB
M  V30 COUNTS 16 16 0 0 0
M  V30 BEGIN ATOM
M  V30 1 Cl 1.299 0.0 0.0 0
M  V30 2 C 0.0 -0.75 0.0 0
M  V30 3 C -1.299 0.0 0.0 0
M  V30 4 C 0.0 -2.2499 0.0 0
M  V30 5 Cl -1.299 1.5 0.0 0
M  V30 6 C -2.598 -0.7499 0.0 0
M  V30 7 S 1.299 -3.0 0.0 0
M  V30 8 C -1.299 -2.9999 0.0 0
M  V30 9 C -2.598 -2.2499 0.0 0
M  V30 10 O 0.549 -4.299 0.0 0
M  V30 11 O 2.049 -1.7009 0.0 0
M  V30 12 N 2.598 -3.75 0.0 0
M  V30 13 S -3.8971 -2.9999 0.0 0
M  V30 14 O -4.6471 -1.7009 0.0 0
M  V30 15 O -3.1471 -4.299 0.0 0
M  V30 16 N -5.1961 -3.7499 0.0 0
M  V30 END ATOM
M  V30 BEGIN BOND
M  V30 1 1 1 2
M  V30 2 2 2 3
M  V30 3 1 2 4
M  V30 4 1 3 5
M  V30 5 1 3 6
M  V30 6 1 4 7
M  V30 7 2 4 8
M  V30 8 2 6 9
M  V30 9 2 7 10
M  V30 10 2 7 11
M  V30 11 1 7 12
M  V30 12 1 9 13
M  V30 13 2 13 14
M  V30 14 2 13 15
M  V30 15 1 13 16
M  V30 16 1 8 9
M  V30 END BOND
M  V30 END CTAB
M  END
>  <Molecule Name>


>  <status>
-

>  <cas>
120-97-8

>  <name>
DICHLORPHENAMIDE

>  <ID>
235

>  <Smiles>
NS(c(cc1S(N)(=O)=O)cc(Cl)c1Cl)(=O)=O

$$$$

Actelion Java MolfileCreator 2.0

  0  0  0  0  0  0              0 V3000
M  V30 BEGIN CTAB
M  V30 COUNTS 17 18 0 0 0
M  V30 BEGIN ATOM
M  V30 1 Cl 1.299 0.0 0.0 0
M  V30 2 C 0.0 -0.75 0.0 0
M  V30 3 C -1.299 0.0 0.0 0
M  V30 4 C 0.0 -2.25 0.0 0
M  V30 5 C -2.598 -0.75 0.0 0
M  V30 6 C -1.299 -3.0 0.0 0
M  V30 7 C -2.598 -2.25 0.0 0
M  V30 8 C -3.8971 -3.0 0.0 0 CFG=2
M  V30 9 S -5.1961 -2.25 0.0 0
M  V30 10 N -3.8971 -4.5 0.0 0
M  V30 11 O -4.4461 -0.951 0.0 0
M  V30 12 O -5.9461 -0.951 0.0 0
M  V30 13 C -6.4952 -3.0 0.0 0
M  V30 14 C -5.1961 -5.25 0.0 0
M  V30 15 C -2.598 -5.25 0.0 0
M  V30 16 C -6.4952 -4.5 0.0 0
M  V30 17 O -5.1961 -6.75 0.0 0
M  V30 END ATOM
M  V30 BEGIN BOND
M  V30 1 1 1 2
M  V30 2 2 2 3
M  V30 3 1 2 4
M  V30 4 1 3 5
M  V30 5 2 4 6
M  V30 6 2 5 7
M  V30 7 1 8 7 CFG=1
M  V30 8 1 8 9
M  V30 9 1 8 10
M  V30 10 2 9 11
M  V30 11 2 9 12
M  V30 12 1 9 13
M  V30 13 1 10 14
M  V30 14 1 10 15
M  V30 15 1 13 16
M  V30 16 2 14 17
M  V30 17 1 6 7
M  V30 18 1 14 16
M  V30 END BOND
M  V30 BEGIN COLLECTION
M  V30 MDLV30/STERAC1 ATOMS=(1 8)
M  V30 END COLLECTION
M  V30 END CTAB
M  END
>  <Molecule Name>


>  <status>
DISCONTINUED

>  <cas>
80-77-3

>  <name>
CHLORMEZANONE

>  <ID>
236

>  <Smiles>
CN(C(c(cc1)ccc1Cl)S(CC1)(=O)=O)C1=O

$$$$

Actelion Java MolfileCreator 2.0

  0  0  0  0  0  0              0 V3000
M  V30 BEGIN CTAB
M  V30 COUNTS 28 31 0 0 0
M  V30 BEGIN ATOM
M  V30 1 S 7.7942 -2.2499 0.0 0
M  V30 2 C 7.7942 -0.75 0.0 0
M  V30 3 C 6.4951 -2.9999 0.0 0
M  V30 4 C 6.4951 0.0 0.0 0
M  V30 5 C 9.0932 0.0 0.0 0
M  V30 6 C 5.1961 -2.25 0.0 0
M  V30 7 C 6.4951 -4.5 0.0 0
M  V30 8 N 5.1961 -0.75 0.0 0
M  V30 9 C 6.4951 1.5 0.0 0
M  V30 10 C 9.0932 1.5 0.0 0
M  V30 11 C 3.8971 -3.0 0.0 0
M  V30 12 C 5.1961 -5.25 0.0 0
M  V30 13 C 3.8971 0.0 0.0 0
M  V30 14 C 7.7942 2.25 0.0 0
M  V30 15 C 3.8971 -4.5 0.0 0
M  V30 16 C 2.598 -0.75 0.0 0
M  V30 17 C 7.7942 3.75 0.0 0
M  V30 18 C 1.299 0.0 0.0 0
M  V30 19 F 6.2942 3.7499 0.0 0
M  V30 20 F 7.7942 5.25 0.0 0
M  V30 21 F 9.2942 3.75 0.0 0
M  V30 22 N 0.0 -0.75 0.0 0
M  V30 23 C -1.299 0.0 0.0 0
M  V30 24 C 0.0 -2.2499 0.0 0
M  V30 25 C -2.598 -0.7499 0.0 0
M  V30 26 C -1.299 -2.9999 0.0 0
M  V30 27 N -2.598 -2.2499 0.0 0
M  V30 28 C -3.8971 -2.9999 0.0 0
M  V30 END ATOM
M  V30 BEGIN BOND
M  V30 1 1 1 2
M  V30 2 1 1 3
M  V30 3 2 2 4
M  V30 4 1 2 5
M  V30 5 2 3 6
M  V30 6 1 3 7
M  V30 7 1 4 8
M  V30 8 1 4 9
M  V30 9 2 5 10
M  V30 10 1 6 11
M  V30 11 2 7 12
M  V30 12 1 8 13
M  V30 13 2 9 14
M  V30 14 2 11 15
M  V30 15 1 13 16
M  V30 16 1 14 17
M  V30 17 1 16 18
M  V30 18 1 17 19
M  V30 19 1 17 20
M  V30 20 1 17 21
M  V30 21 1 18 22
M  V30 22 1 22 23
M  V30 23 1 22 24
M  V30 24 1 23 25
M  V30 25 1 24 26
M  V30 26 1 25 27
M  V30 27 1 27 28
M  V30 28 1 6 8
M  V30 29 1 10 14
M  V30 30 1 12 15
M  V30 31 1 26 27
M  V30 END BOND
M  V30 END CTAB
M  END
>  <Molecule Name>


>  <status>
-

>  <cas>
117-89-5

>  <name>
TRIFLUOPERAZINE

>  <ID>
237

>  <Smiles>
CN1CCN(CCCN2c(cc(C(F)(F)F)cc3)c3Sc3c2cccc3)CC1

$$$$

Actelion Java MolfileCreator 2.0

  0  0  0  0  0  0              0 V3000
M  V30 BEGIN CTAB
M  V30 COUNTS 29 32 0 0 0
M  V30 BEGIN ATOM
M  V30 1 S 2.598 0.0 0.0 0 CFG=2
M  V30 2 O 3.4641 -0.5 0.0 0
M  V30 3 C 2.598 1.0 0.0 0
M  V30 4 C 1.732 -0.5 0.0 0
M  V30 5 C 3.4641 1.5 0.0 0
M  V30 6 C 1.732 1.4999 0.0 0
M  V30 7 C 0.866 0.0 0.0 0
M  V30 8 C 3.4641 2.5 0.0 0
M  V30 9 C 1.732 2.5 0.0 0
M  V30 10 C 0.0 -0.5 0.0 0
M  V30 11 C 2.598 3.0 0.0 0
M  V30 12 C -0.9135 -0.0932 0.0 0
M  V30 13 C -0.1045 -1.4945 0.0 0
M  V30 14 O -1.1214 0.8848 0.0 0
M  V30 15 N -1.5826 -0.8364 0.0 0
M  V30 16 O 0.6386 -2.1636 0.0 0
M  V30 17 N -1.0826 -1.7024 0.0 0
M  V30 18 C -2.5771 -0.7318 0.0 0
M  V30 19 C -1.4894 -2.6159 0.0 0
M  V30 20 C -2.9839 0.1816 0.0 0
M  V30 21 C -3.1649 -1.5408 0.0 0
M  V30 22 C -2.4839 -2.7205 0.0 0
M  V30 23 C -0.9016 -3.4249 0.0 0
M  V30 24 C -3.9784 0.2861 0.0 0
M  V30 25 C -4.1595 -1.4363 0.0 0
M  V30 26 C -2.8906 -3.634 0.0 0
M  V30 27 C -1.3083 -4.3385 0.0 0
M  V30 28 C -4.5662 -0.5228 0.0 0
M  V30 29 C -2.3028 -4.443 0.0 0
M  V30 END ATOM
M  V30 BEGIN BOND
M  V30 1 2 1 2
M  V30 2 1 1 3
M  V30 3 1 1 4 CFG=1
M  V30 4 2 3 5
M  V30 5 1 3 6
M  V30 6 1 4 7
M  V30 7 1 5 8
M  V30 8 2 6 9
M  V30 9 1 7 10
M  V30 10 2 8 11
M  V30 11 1 10 12
M  V30 12 1 10 13
M  V30 13 2 12 14
M  V30 14 1 12 15
M  V30 15 2 13 16
M  V30 16 1 13 17
M  V30 17 1 15 18
M  V30 18 1 17 19
M  V30 19 2 18 20
M  V30 20 1 18 21
M  V30 21 2 19 22
M  V30 22 1 19 23
M  V30 23 1 20 24
M  V30 24 2 21 25
M  V30 25 1 22 26
M  V30 26 2 23 27
M  V30 27 2 24 28
M  V30 28 2 26 29
M  V30 29 1 9 11
M  V30 30 1 15 17
M  V30 31 1 25 28
M  V30 32 1 27 29
M  V30 END BOND
M  V30 BEGIN COLLECTION
M  V30 MDLV30/STERAC1 ATOMS=(1 1)
M  V30 END COLLECTION
M  V30 END CTAB
M  END
>  <Molecule Name>


>  <status>
DISCONTINUED

>  <cas>
57-96-5

>  <name>
SULFINPYRAZONE

>  <ID>
238

>  <Smiles>
O=C(C(CCS(c1ccccc1)=O)C1=O)N(c2ccccc2)N1c1ccccc1

$$$$

Actelion Java MolfileCreator 2.0

  0  0  0  0  0  0              0 V3000
M  V30 BEGIN CTAB
M  V30 COUNTS 19 19 0 0 0
M  V30 BEGIN ATOM
M  V30 1 O -3.9262 -3.0224 0.0 0
M  V30 2 C -2.6174 -2.2668 0.0 0
M  V30 3 N -1.3087 -3.0224 0.0 0
M  V30 4 N -2.6174 -0.7556 0.0 0
M  V30 5 C 0.0 -2.2668 0.0 0
M  V30 6 C -1.3087 -4.5336 0.0 0
M  V30 7 C -1.3087 0.0 0.0 0
M  V30 8 O 1.1361 -3.0991 0.0 0
M  V30 9 C 0.0 -0.7556 0.0 0 CFG=2
M  V30 10 O -1.3087 1.5112 0.0 0
M  V30 11 C 1.3087 -1.5112 0.0 0 CFG=1
M  V30 12 C 1.3087 0.0 0.0 0
M  V30 13 C 2.6174 -0.7556 0.0 0
M  V30 14 C 1.6539 -2.8689 0.0 0
M  V30 15 C 1.3087 1.5112 0.0 0
M  V30 16 C 3.9262 0.0 0.0 0
M  V30 17 C 2.6174 2.2668 0.0 0
M  V30 18 C 5.2349 0.7556 0.0 0
M  V30 19 C 6.5437 0.0 0.0 0
M  V30 END ATOM
M  V30 BEGIN BOND
M  V30 1 2 1 2
M  V30 2 1 2 3
M  V30 3 1 2 4
M  V30 4 1 3 5
M  V30 5 1 3 6
M  V30 6 1 4 7
M  V30 7 2 5 8
M  V30 8 1 9 5
M  V30 9 2 7 10
M  V30 10 1 9 11 CFG=3
M  V30 11 1 9 12
M  V30 12 1 11 13
M  V30 13 1 11 14 CFG=1
M  V30 14 1 12 15
M  V30 15 3 13 16
M  V30 16 2 15 17
M  V30 17 1 16 18
M  V30 18 1 18 19
M  V30 19 1 7 9
M  V30 END BOND
M  V30 BEGIN COLLECTION
M  V30 MDLV30/STERAC1 ATOMS=(2 9 11)
M  V30 END COLLECTION
M  V30 END CTAB
M  END
>  <Molecule Name>


>  <status>
-

>  <cas>
151-83-7

>  <name>
METHOHEXITAL

>  <ID>
239

>  <Smiles>
CCC#C[C@@H](C)[C@@](CC=C)(C(NC(N1C)=O)=O)C1=O

$$$$

Actelion Java MolfileCreator 2.0

  0  0  0  0  0  0              0 V3000
M  V30 BEGIN CTAB
M  V30 COUNTS 25 27 0 0 0
M  V30 BEGIN ATOM
M  V30 1 O 3.5568 1.6451 0.0 0
M  V30 2 C 3.8978 0.0 0.0 0
M  V30 3 O 2.5985 -0.7501 0.0 0
M  V30 4 C 5.197 -0.7501 0.0 0 CFG=2
M  V30 5 C 1.2992 0.0 0.0 0
M  V30 6 O 6.4963 0.0 0.0 0
M  V30 7 C 5.197 -2.2504 0.0 0
M  V30 8 C 5.197 0.7501 0.0 0
M  V30 9 C 0.0 -0.7501 0.0 0
M  V30 10 C 3.8978 -3.0005 0.0 0
M  V30 11 C 6.4963 -3.0005 0.0 0
M  V30 12 C 6.4963 1.5002 0.0 0
M  V30 13 C 4.116 1.5454 0.0 0
M  V30 14 N 0.0 -2.2504 0.0 0
M  V30 15 N -1.2992 0.0 0.0 0
M  V30 16 C 3.8978 -4.5008 0.0 0
M  V30 17 C 6.4963 -4.5008 0.0 0
M  V30 18 C 6.4963 3.0005 0.0 0
M  V30 19 C 3.8978 3.0005 0.0 0
M  V30 20 C -1.2992 -3.0005 0.0 0
M  V30 21 C -2.5985 -0.7501 0.0 0
M  V30 22 C -1.2992 1.5002 0.0 0
M  V30 23 C 5.197 -5.2509 0.0 0
M  V30 24 C 5.197 3.7506 0.0 0
M  V30 25 C -2.5985 -2.2504 0.0 0
M  V30 END ATOM
M  V30 BEGIN BOND
M  V30 1 2 1 2
M  V30 2 1 2 3
M  V30 3 1 4 2
M  V30 4 1 3 5
M  V30 5 1 4 6
M  V30 6 1 4 7
M  V30 7 1 4 8 CFG=1
M  V30 8 1 5 9
M  V30 9 2 7 10
M  V30 10 1 7 11
M  V30 11 1 8 12
M  V30 12 1 8 13
M  V30 13 2 9 14
M  V30 14 1 9 15
M  V30 15 1 10 16
M  V30 16 2 11 17
M  V30 17 1 12 18
M  V30 18 1 13 19
M  V30 19 1 14 20
M  V30 20 1 15 21
M  V30 21 1 15 22
M  V30 22 2 16 23
M  V30 23 1 18 24
M  V30 24 1 20 25
M  V30 25 1 17 23
M  V30 26 1 19 24
M  V30 27 1 21 25
M  V30 END BOND
M  V30 BEGIN COLLECTION
M  V30 MDLV30/STERAC1 ATOMS=(1 4)
M  V30 END COLLECTION
M  V30 END CTAB
M  END
>  <Molecule Name>


>  <status>
DISCONTINUED

>  <cas>
125-53-1

>  <name>
OXYPHENCYCLIMINE

>  <ID>
240

>  <Smiles>
CN1C(COC(C(C2CCCCC2)(c2ccccc2)O)=O)=NCCC1

$$$$

Actelion Java MolfileCreator 2.0

  0  0  0  0  0  0              0 V3000
M  V30 BEGIN CTAB
M  V30 COUNTS 11 11 0 0 0
M  V30 BEGIN ATOM
M  V30 1 N 3.348 0.549 0.0 0
M  V30 2 C 2.598 -0.75 0.0 0
M  V30 3 C 1.299 0.0 0.0 0
M  V30 4 C 3.8971 -1.5 0.0 0
M  V30 5 C 1.848 -2.049 0.0 0
M  V30 6 C 0.0 -0.75 0.0 0
M  V30 7 C -1.299 0.0 0.0 0
M  V30 8 C 0.0 -2.2499 0.0 0
M  V30 9 C -2.598 -0.7499 0.0 0
M  V30 10 C -1.299 -2.9999 0.0 0
M  V30 11 C -2.598 -2.2499 0.0 0
M  V30 END ATOM
M  V30 BEGIN BOND
M  V30 1 1 1 2
M  V30 2 1 2 3
M  V30 3 1 2 4
M  V30 4 1 2 5
M  V30 5 1 3 6
M  V30 6 2 6 7
M  V30 7 1 6 8
M  V30 8 1 7 9
M  V30 9 2 8 10
M  V30 10 2 9 11
M  V30 11 1 10 11
M  V30 END BOND
M  V30 END CTAB
M  END
>  <Molecule Name>


>  <status>
-

>  <cas>
122-09-8

>  <name>
PHENTERMINE

>  <ID>
241

>  <Smiles>
CC(C)(Cc1ccccc1)N

$$$$

Actelion Java MolfileCreator 2.0

  0  0  0  0  0  0              0 V3000
M  V30 BEGIN CTAB
M  V30 COUNTS 17 17 0 0 0
M  V30 BEGIN ATOM
M  V30 1 Cl 12.9904 2.25 0.0 0
M  V30 2 C 11.6913 1.5 0.0 0
M  V30 3 C 10.3923 2.25 0.0 0
M  V30 4 C 11.6913 0.0 0.0 0
M  V30 5 C 9.0932 1.5 0.0 0
M  V30 6 C 10.3923 -0.75 0.0 0
M  V30 7 C 9.0932 0.0 0.0 0
M  V30 8 S 7.7942 -0.75 0.0 0
M  V30 9 O 7.0442 -2.049 0.0 0
M  V30 10 O 8.5442 -2.049 0.0 0
M  V30 11 N 6.4952 0.0 0.0 0
M  V30 12 C 5.1961 -0.75 0.0 0
M  V30 13 O 5.1961 -2.25 0.0 0
M  V30 14 N 3.8971 0.0 0.0 0
M  V30 15 C 2.598 -0.75 0.0 0
M  V30 16 C 1.299 0.0 0.0 0
M  V30 17 C 0.0 -0.75 0.0 0
M  V30 END ATOM
M  V30 BEGIN BOND
M  V30 1 1 1 2
M  V30 2 2 2 3
M  V30 3 1 2 4
M  V30 4 1 3 5
M  V30 5 2 4 6
M  V30 6 2 5 7
M  V30 7 1 7 8
M  V30 8 2 8 9
M  V30 9 2 8 10
M  V30 10 1 8 11
M  V30 11 1 11 12
M  V30 12 2 12 13
M  V30 13 1 12 14
M  V30 14 1 14 15
M  V30 15 1 15 16
M  V30 16 1 16 17
M  V30 17 1 6 7
M  V30 END BOND
M  V30 END CTAB
M  END
>  <Molecule Name>


>  <status>
DISCONTINUED

>  <cas>
94-20-2

>  <name>
CHLORPROPAMIDE

>  <ID>
242

>  <Smiles>
CCCNC(NS(c(cc1)ccc1Cl)(=O)=O)=O

$$$$

Actelion Java MolfileCreator 2.0

  0  0  0  0  0  0              0 V3000
M  V30 BEGIN CTAB
M  V30 COUNTS 28 31 0 0 0
M  V30 BEGIN ATOM
M  V30 1 F 5.0694 -3.4206 0.0 0
M  V30 2 C 3.8793 -3.574 0.0 0 CFG=2
M  V30 3 C 4.5484 -4.3172 0.0 0 CFG=2
M  V30 4 C 4.1883 -2.623 0.0 0 CFG=1
M  V30 5 C 2.9011 -3.7819 0.0 0 CFG=2
M  V30 6 C 4.2394 -5.2682 0.0 0
M  V30 7 C 5.5266 -4.1093 0.0 0
M  V30 8 C 4.8574 -3.1161 0.0 0
M  V30 9 O 5.1664 -2.4151 0.0 0
M  V30 10 C 3.5192 -1.8798 0.0 0
M  V30 11 C 2.232 -3.0388 0.0 0 CFG=1
M  V30 12 C 2.5921 -4.733 0.0 0
M  V30 13 C 4.9085 -6.0114 0.0 0
M  V30 14 C 3.2612 -5.4761 0.0 0
M  V30 15 C 6.1957 -4.8524 0.0 0
M  V30 16 C 2.541 -2.0877 0.0 0 CFG=1
M  V30 17 C 1.232 -3.0388 0.0 0
M  V30 18 C 5.8867 -5.8035 0.0 0
M  V30 19 C 1.732 -1.5 0.0 0 CFG=1
M  V30 20 C 2.9091 -1.1905 0.0 0
M  V30 21 C 0.923 -2.0877 0.0 0 CFG=2
M  V30 22 O 6.5558 -6.5466 0.0 0
M  V30 23 O 2.5429 -1.0055 0.0 0
M  V30 24 C 1.732 -0.5 0.0 0
M  V30 25 C -0.028 -1.7787 0.0 0
M  V30 26 O 2.598 0.0 0.0 0
M  V30 27 C 0.866 0.0 0.0 0
M  V30 28 O 0.0 -0.5 0.0 0
M  V30 END ATOM
M  V30 BEGIN BOND
M  V30 1 1 2 1 CFG=1
M  V30 2 1 3 2
M  V30 3 1 4 2
M  V30 4 1 5 2
M  V30 5 1 3 6
M  V30 6 1 3 7
M  V30 7 1 3 8 CFG=3
M  V30 8 1 4 9 CFG=3
M  V30 9 1 4 10
M  V30 10 1 11 5
M  V30 11 1 5 12 CFG=1
M  V30 12 2 6 13
M  V30 13 1 6 14
M  V30 14 2 7 15
M  V30 15 1 16 10
M  V30 16 1 11 17 CFG=3
M  V30 17 1 13 18
M  V30 18 1 19 16
M  V30 19 1 16 20 CFG=3
M  V30 20 1 21 17
M  V30 21 2 18 22
M  V30 22 1 19 23 CFG=1
M  V30 23 1 19 24
M  V30 24 1 21 25 CFG=1
M  V30 25 2 24 26
M  V30 26 1 24 27
M  V30 27 1 27 28
M  V30 28 1 11 16
M  V30 29 1 12 14
M  V30 30 1 15 18
M  V30 31 1 19 21
M  V30 END BOND
M  V30 BEGIN COLLECTION
M  V30 MDLV30/STERAC1 ATOMS=(8 2 3 4 5 11 16 19 21)
M  V30 END COLLECTION
M  V30 END CTAB
M  END
>  <Molecule Name>


>  <status>
-

>  <cas>
50-02-2

>  <name>
DEXAMETHASONE

>  <ID>
243

>  <Smiles>
C[C@H](C[C@@H]([C@H](CCC([C@]1(C)C=C2)=CC2=O)[C@@]11F)[C@]2(C)C[C@@H]1O)[C@@]2(C(CO)=O)O

$$$$

Actelion Java MolfileCreator 2.0

  0  0  0  0  0  0              0 V3000
M  V30 BEGIN CTAB
M  V30 COUNTS 32 35 0 0 0
M  V30 BEGIN ATOM
M  V30 1 P 5.203 -0.7509 0.0 0
M  V30 2 O 4.452 -2.0517 0.0 0
M  V30 3 O 3.9022 0.0 0.0 0
M  V30 4 O 6.5037 -1.5019 0.0 0 CHG=-1
M  V30 5 O 5.954 0.5497 0.0 0 CHG=-1
M  V30 6 C 2.6015 -0.7509 0.0 0
M  V30 7 C 1.3007 0.0 0.0 0
M  V30 8 O 1.3007 1.5019 0.0 0
M  V30 9 C 0.0 -0.7509 0.0 0 CFG=2
M  V30 10 O 1.2596 -1.569 0.0 0
M  V30 11 C -1.3721 -0.14 0.0 0 CFG=2
M  V30 12 C -0.1569 -2.2447 0.0 0 CFG=1
M  V30 13 C -2.3771 -1.2562 0.0 0 CFG=1
M  V30 14 C -1.8362 1.2883 0.0 0
M  V30 15 C -0.2559 0.8649 0.0 0
M  V30 16 C -1.6261 -2.557 0.0 0
M  V30 17 C 0.9591 -3.2497 0.0 0
M  V30 18 C -3.8463 -0.9439 0.0 0 CFG=1
M  V30 19 C -3.3054 1.6006 0.0 0 CFG=1
M  V30 20 C -4.3104 0.4844 0.0 0 CFG=1
M  V30 21 C -4.8513 -2.0601 0.0 0
M  V30 22 O -3.7695 3.0291 0.0 0
M  V30 23 F -4.6019 1.8205 0.0 0
M  V30 24 C -5.7796 0.7967 0.0 0 CFG=2
M  V30 25 C -6.3204 -1.7478 0.0 0
M  V30 26 C -6.7846 -0.3194 0.0 0
M  V30 27 C -6.2437 2.2252 0.0 0
M  V30 28 C -5.04 2.1784 0.0 0
M  V30 29 C -8.2537 -0.0071 0.0 0
M  V30 30 C -7.7128 2.5375 0.0 0
M  V30 31 C -8.7179 1.4213 0.0 0
M  V30 32 O -10.187 1.7335 0.0 0
M  V30 END ATOM
M  V30 BEGIN BOND
M  V30 1 2 1 2
M  V30 2 1 1 3
M  V30 3 1 1 4
M  V30 4 1 1 5
M  V30 5 1 3 6
M  V30 6 1 6 7
M  V30 7 2 7 8
M  V30 8 1 9 7
M  V30 9 1 9 10 CFG=3
M  V30 10 1 11 9
M  V30 11 1 12 9
M  V30 12 1 13 11
M  V30 13 1 11 14
M  V30 14 1 11 15 CFG=1
M  V30 15 1 12 16
M  V30 16 1 12 17 CFG=3
M  V30 17 1 18 13
M  V30 18 1 19 14
M  V30 19 1 20 18
M  V30 20 1 18 21 CFG=3
M  V30 21 1 19 22 CFG=1
M  V30 22 1 20 23 CFG=3
M  V30 23 1 24 20
M  V30 24 1 21 25
M  V30 25 1 24 26
M  V30 26 1 24 27
M  V30 27 1 24 28 CFG=1
M  V30 28 2 26 29
M  V30 29 2 27 30
M  V30 30 1 29 31
M  V30 31 2 31 32
M  V30 32 1 13 16 CFG=1
M  V30 33 1 19 20
M  V30 34 1 25 26
M  V30 35 1 30 31
M  V30 END BOND
M  V30 BEGIN COLLECTION
M  V30 MDLV30/STERAC1 ATOMS=(8 9 11 12 13 18 19 20 24)
M  V30 END COLLECTION
M  V30 END CTAB
M  END
>  <Molecule Name>


>  <status>
-

>  <cas>
312-93-6

>  <name>
DEXAMETHASONE PHOSPHATE

>  <ID>
244

>  <Smiles>
C[C@H](C[C@@H]([C@H](CCC([C@]1(C)C=C2)=CC2=O)[C@@]11F)[C@]2(C)C[C@@H]1O)[C@@]2(C(COP([O-])([O-])=O)=O)O

$$$$

Actelion Java MolfileCreator 2.0

  0  0  0  0  0  0              0 V3000
M  V30 BEGIN CTAB
M  V30 COUNTS 31 34 0 0 0
M  V30 BEGIN ATOM
M  V30 1 F 9.6065 -4.9298 0.0 0
M  V30 2 C 8.4196 -5.3627 0.0 0 CFG=2
M  V30 3 C 9.4236 -6.4778 0.0 0 CFG=2
M  V30 4 C 8.8833 -3.9357 0.0 0 CFG=1
M  V30 5 C 6.9519 -5.6747 0.0 0 CFG=2
M  V30 6 C 8.9599 -7.9048 0.0 0
M  V30 7 C 10.8913 -6.1658 0.0 0
M  V30 8 C 10.1525 -4.7855 0.0 0
M  V30 9 O 10.351 -3.6237 0.0 0
M  V30 10 C 7.8793 -2.8206 0.0 0
M  V30 11 C 5.9479 -4.5596 0.0 0 CFG=1
M  V30 12 C 6.4883 -7.1017 0.0 0
M  V30 13 C 9.964 -9.0199 0.0 0
M  V30 14 C 7.4923 -8.2168 0.0 0
M  V30 15 C 11.8953 -7.2809 0.0 0
M  V30 16 C 6.4116 -3.1326 0.0 0 CFG=1
M  V30 17 C 4.4475 -4.5596 0.0 0
M  V30 18 C 11.4316 -8.7079 0.0 0
M  V30 19 C 5.1977 -2.2506 0.0 0 CFG=1
M  V30 20 C 6.9639 -1.7864 0.0 0
M  V30 21 C 3.9838 -3.1326 0.0 0 CFG=2
M  V30 22 O 12.4356 -9.823 0.0 0
M  V30 23 O 6.4145 -1.5087 0.0 0
M  V30 24 C 5.1977 -0.7502 0.0 0
M  V30 25 C 2.5568 -2.6689 0.0 0
M  V30 26 O 6.4971 0.0 0.0 0
M  V30 27 C 3.8983 0.0 0.0 0
M  V30 28 O 2.5988 -0.7502 0.0 0
M  V30 29 C 1.2994 0.0 0.0 0
M  V30 30 O 1.2994 1.5004 0.0 0
M  V30 31 C 0.0 -0.7502 0.0 0
M  V30 END ATOM
M  V30 BEGIN BOND
M  V30 1 1 2 1 CFG=1
M  V30 2 1 3 2
M  V30 3 1 4 2
M  V30 4 1 5 2
M  V30 5 1 3 6
M  V30 6 1 3 7
M  V30 7 1 3 8 CFG=3
M  V30 8 1 4 9 CFG=3
M  V30 9 1 4 10
M  V30 10 1 11 5
M  V30 11 1 5 12 CFG=1
M  V30 12 2 6 13
M  V30 13 1 6 14
M  V30 14 2 7 15
M  V30 15 1 16 10
M  V30 16 1 11 17 CFG=3
M  V30 17 1 13 18
M  V30 18 1 19 16
M  V30 19 1 16 20 CFG=3
M  V30 20 1 21 17
M  V30 21 2 18 22
M  V30 22 1 19 23 CFG=1
M  V30 23 1 19 24
M  V30 24 1 21 25 CFG=1
M  V30 25 2 24 26
M  V30 26 1 24 27
M  V30 27 1 27 28
M  V30 28 1 28 29
M  V30 29 2 29 30
M  V30 30 1 29 31
M  V30 31 1 11 16
M  V30 32 1 12 14
M  V30 33 1 15 18
M  V30 34 1 19 21
M  V30 END BOND
M  V30 BEGIN COLLECTION
M  V30 MDLV30/STERAC1 ATOMS=(8 2 3 4 5 11 16 19 21)
M  V30 END COLLECTION
M  V30 END CTAB
M  END
>  <Molecule Name>


>  <status>
DISCONTINUED

>  <cas>
1177-87-3

>  <name>
DEXAMETHASONE ACETATE

>  <ID>
245

>  <Smiles>
C[C@H](C[C@@H]([C@H](CCC([C@]1(C)C=C2)=CC2=O)[C@@]11F)[C@]2(C)C[C@@H]1O)[C@@]2(C(COC(C)=O)=O)O

$$$$

Actelion Java MolfileCreator 2.0

  0  0  0  0  0  0              0 V3000
M  V30 BEGIN CTAB
M  V30 COUNTS 15 15 0 0 0
M  V30 BEGIN ATOM
M  V30 1 O 6.4951 0.0 0.0 0
M  V30 2 C 5.1961 -0.75 0.0 0
M  V30 3 C 5.1961 -2.25 0.0 0
M  V30 4 C 3.8971 0.0 0.0 0 CFG=1
M  V30 5 C 3.8971 -2.9999 0.0 0
M  V30 6 C 6.4951 -3.0 0.0 0
M  V30 7 N 2.598 -0.75 0.0 0
M  V30 8 C 3.8971 1.5 0.0 0
M  V30 9 C 3.8971 -4.5 0.0 0
M  V30 10 C 6.4951 -4.5 0.0 0
M  V30 11 C 2.598 -2.25 0.0 0
M  V30 12 C 1.299 0.0 0.0 0
M  V30 13 C 5.1961 -5.25 0.0 0
M  V30 14 C 1.299 -3.0 0.0 0
M  V30 15 C 0.0 -0.75 0.0 0
M  V30 END ATOM
M  V30 BEGIN BOND
M  V30 1 2 1 2
M  V30 2 1 2 3
M  V30 3 1 4 2
M  V30 4 2 3 5
M  V30 5 1 3 6
M  V30 6 1 4 7 CFG=1
M  V30 7 1 4 8
M  V30 8 1 5 9
M  V30 9 2 6 10
M  V30 10 1 7 11
M  V30 11 1 7 12
M  V30 12 2 9 13
M  V30 13 1 11 14
M  V30 14 1 12 15
M  V30 15 1 10 13
M  V30 END BOND
M  V30 BEGIN COLLECTION
M  V30 MDLV30/STERAC1 ATOMS=(1 4)
M  V30 END COLLECTION
M  V30 END CTAB
M  END
>  <Molecule Name>


>  <status>
-

>  <cas>
90-84-6

>  <name>
DIETHYLPROPION

>  <ID>
246

>  <Smiles>
CCN(CC)C(C)C(c1ccccc1)=O

$$$$
_c001
Actelion Java MolfileCreator 2.0

  0  0  0  0  0  0              0 V3000
M  V30 BEGIN CTAB
M  V30 COUNTS 16 16 0 0 0
M  V30 BEGIN ATOM
M  V30 1 S 0.0 3.7778 0.0 0
M  V30 2 C 1.3087 3.0223 0.0 0
M  V30 3 N 1.3087 1.5111 0.0 0
M  V30 4 N 2.6174 3.7778 0.0 0
M  V30 5 C 2.6174 0.7555 0.0 0
M  V30 6 C 3.9261 3.0223 0.0 0
M  V30 7 O 2.4838 -0.622 0.0 0
M  V30 8 C 3.9261 1.5111 0.0 0
M  V30 9 O 5.2348 3.7778 0.0 0
M  V30 10 C 3.9261 0.0 0.0 0 CFG=2
M  V30 11 C 5.2348 0.7555 0.0 0
M  V30 12 C 5.2348 -0.7555 0.0 0
M  V30 13 C 2.8845 -1.0227 0.0 0
M  V30 14 C 6.5435 1.5111 0.0 0
M  V30 15 C 6.5435 0.0 0.0 0
M  V30 16 C 7.8522 -0.7555 0.0 0
M  V30 END ATOM
M  V30 BEGIN BOND
M  V30 1 2 1 2
M  V30 2 1 2 3
M  V30 3 1 2 4
M  V30 4 1 3 5
M  V30 5 1 4 6
M  V30 6 2 5 7
M  V30 7 1 5 8
M  V30 8 2 6 9
M  V30 9 1 10 8
M  V30 10 1 8 11
M  V30 11 1 10 12
M  V30 12 1 10 13 CFG=3
M  V30 13 1 11 14
M  V30 14 1 12 15
M  V30 15 1 15 16
M  V30 16 1 6 8
M  V30 END BOND
M  V30 BEGIN COLLECTION
M  V30 MDLV30/STERAC1 ATOMS=(1 10)
M  V30 END COLLECTION
M  V30 END CTAB
M  END
>  <Molecule Name>
_c001

>  <status>
DISCONTINUED

>  <cas>
76-75-5

>  <name>
THIOPENTAL

>  <ID>
247

>  <Smiles>
CCCC(C)C(CC)(C(NC(N1)=S)=O)C1=O

$$$$
_c001
Actelion Java MolfileCreator 2.0

  0  0  0  0  0  0              0 V3000
M  V30 BEGIN CTAB
M  V30 COUNTS 11 13 0 0 0
M  V30 BEGIN ATOM
M  V30 1 S 1.732 -0.5 0.0 0
M  V30 2 P 0.866 0.0 0.0 0
M  V30 3 N 0.866 1.0 0.0 0
M  V30 4 N 0.866 -1.0 0.0 0
M  V30 5 N 0.0 -0.5 0.0 0
M  V30 6 C 1.366 1.866 0.0 0
M  V30 7 C 0.366 1.866 0.0 0
M  V30 8 C 0.366 -1.866 0.0 0
M  V30 9 C 1.366 -1.866 0.0 0
M  V30 10 C -1.0 -0.4999 0.0 0
M  V30 11 C -0.5 -1.366 0.0 0
M  V30 END ATOM
M  V30 BEGIN BOND
M  V30 1 2 1 2
M  V30 2 1 2 3
M  V30 3 1 2 4
M  V30 4 1 2 5
M  V30 5 1 3 6
M  V30 6 1 3 7
M  V30 7 1 4 8
M  V30 8 1 4 9
M  V30 9 1 5 10
M  V30 10 1 5 11
M  V30 11 1 6 7
M  V30 12 1 8 9
M  V30 13 1 10 11
M  V30 END BOND
M  V30 END CTAB
M  END
>  <Molecule Name>
_c001

>  <status>
-

>  <cas>
52-24-4

>  <name>
THIOTEPA

>  <ID>
248

>  <Smiles>
S=P(N1CC1)(N1CC1)N1CC1

$$$$

Actelion Java MolfileCreator 2.0

  0  0  0  0  0  0              0 V3000
M  V30 BEGIN CTAB
M  V30 COUNTS 11 11 0 0 0
M  V30 BEGIN ATOM
M  V30 1 O 2.598 0.0 0.0 0
M  V30 2 C 1.732 -0.5 0.0 0 CFG=2
M  V30 3 C 1.732 -1.5 0.0 0
M  V30 4 C 0.866 0.0 0.0 0 CFG=1
M  V30 5 C 0.866 -1.9999 0.0 0
M  V30 6 C 2.598 -2.0 0.0 0
M  V30 7 N 0.866 1.0 0.0 0
M  V30 8 C 0.0 -0.5 0.0 0
M  V30 9 C 0.866 -2.9999 0.0 0
M  V30 10 C 2.598 -3.0 0.0 0
M  V30 11 C 1.732 -3.5 0.0 0
M  V30 END ATOM
M  V30 BEGIN BOND
M  V30 1 1 2 1 CFG=3
M  V30 2 1 2 3
M  V30 3 1 4 2
M  V30 4 2 3 5
M  V30 5 1 3 6
M  V30 6 1 4 7 CFG=3
M  V30 7 1 4 8
M  V30 8 1 5 9
M  V30 9 2 6 10
M  V30 10 2 9 11
M  V30 11 1 10 11
M  V30 END BOND
M  V30 BEGIN COLLECTION
M  V30 MDLV30/STERAC1 ATOMS=(2 2 4)
M  V30 END COLLECTION
M  V30 END CTAB
M  END
>  <Molecule Name>


>  <status>
DISCONTINUED

>  <cas>
14838-15-4

>  <name>
PHENYLPROPANOLAMINE

>  <ID>
249

>  <Smiles>
C[C@@H]([C@@H](c1ccccc1)O)N

$$$$

Actelion Java MolfileCreator 2.0

  0  0  0  0  0  0              0 V3000
M  V30 BEGIN CTAB
M  V30 COUNTS 22 26 0 0 0
M  V30 BEGIN ATOM
M  V30 1 O 0.866 0.0 0.0 0
M  V30 2 C 0.0 -0.5 0.0 0
M  V30 3 C -0.866 0.0 0.0 0 CFG=1
M  V30 4 C 0.0 -1.4999 0.0 0
M  V30 5 O -1.0739 0.9781 0.0 0
M  V30 6 C -1.732 -0.4999 0.0 0 CFG=1
M  V30 7 C -0.9399 -1.9718 0.0 0
M  V30 8 C -2.0684 1.0826 0.0 0
M  V30 9 C -2.4751 0.1691 0.0 0
M  V30 10 C -1.732 -1.4999 0.0 0 CFG=1
M  V30 11 C -0.6031 -1.2512 0.0 0
M  V30 12 C -2.8892 1.752 0.0 0
M  V30 13 C -3.3978 -0.2936 0.0 0
M  V30 14 O -1.8183 -2.3834 0.0 0
M  V30 15 C -2.6933 -1.8759 0.0 0 CFG=2
M  V30 16 C -0.6366 -2.3325 0.0 0
M  V30 17 O -2.6897 2.7319 0.0 0
M  V30 18 C -3.8496 1.4733 0.0 0
M  V30 19 C -4.0885 0.5023 0.0 0
M  V30 20 C -3.5023 -1.2881 0.0 0
M  V30 21 N -1.5576 -2.7271 0.0 0
M  V30 22 C -1.6974 -3.6675 0.0 0
M  V30 END ATOM
M  V30 BEGIN BOND
M  V30 1 2 1 2
M  V30 2 1 3 2
M  V30 3 1 2 4
M  V30 4 1 3 5 CFG=3
M  V30 5 1 6 3
M  V30 6 1 4 7
M  V30 7 1 5 8
M  V30 8 1 6 9
M  V30 9 1 10 6
M  V30 10 1 6 11 CFG=1
M  V30 11 1 8 12
M  V30 12 1 9 13
M  V30 13 1 10 14 CFG=1
M  V30 14 1 15 10
M  V30 15 1 11 16
M  V30 16 1 12 17
M  V30 17 2 12 18
M  V30 18 2 13 19
M  V30 19 1 13 20
M  V30 20 1 15 21 CFG=1
M  V30 21 1 21 22
M  V30 22 1 7 10
M  V30 23 2 8 9
M  V30 24 1 15 20
M  V30 25 1 16 21
M  V30 26 1 18 19
M  V30 END BOND
M  V30 BEGIN COLLECTION
M  V30 MDLV30/STERAC1 ATOMS=(4 3 6 10 15)
M  V30 END COLLECTION
M  V30 END CTAB
M  END
>  <Molecule Name>


>  <status>
-

>  <cas>
76-41-5

>  <name>
OXYMORPHONE

>  <ID>
250

>  <Smiles>
CN(CC[C@@]12c(c(C3)ccc4O)c4O[C@@H]2C(CC2)=O)[C@@H]3[C@]12O

$$$$

Actelion Java MolfileCreator 2.0

  0  0  0  0  0  0              0 V3000
M  V30 BEGIN CTAB
M  V30 COUNTS 14 14 0 0 0
M  V30 BEGIN ATOM
M  V30 1 S 4.0874 2.1159 0.0 0
M  V30 2 O 5.001 1.7092 0.0 0
M  V30 3 O 3.1739 2.5227 0.0 0
M  V30 4 N 4.4942 3.0295 0.0 0
M  V30 5 C 3.6807 1.2024 0.0 0
M  V30 6 S 2.7026 0.9945 0.0 0
M  V30 7 N 4.1807 0.3364 0.0 0
M  V30 8 C 2.598 0.0 0.0 0
M  V30 9 N 3.5116 -0.4067 0.0 0
M  V30 10 N 1.732 -0.5 0.0 0
M  V30 11 C 3.7195 -1.3848 0.0 0
M  V30 12 C 0.866 0.0 0.0 0
M  V30 13 O 0.866 1.0 0.0 0
M  V30 14 C 0.0 -0.5 0.0 0
M  V30 END ATOM
M  V30 BEGIN BOND
M  V30 1 2 1 2
M  V30 2 2 1 3
M  V30 3 1 1 4
M  V30 4 1 1 5
M  V30 5 1 5 6
M  V30 6 2 5 7
M  V30 7 1 6 8
M  V30 8 1 7 9
M  V30 9 2 8 10
M  V30 10 1 9 11
M  V30 11 1 10 12
M  V30 12 2 12 13
M  V30 13 1 12 14
M  V30 14 1 8 9
M  V30 END BOND
M  V30 END CTAB
M  END
>  <Molecule Name>


>  <status>
-

>  <cas>
554-57-4

>  <name>
METHAZOLAMIDE

>  <ID>
251

>  <Smiles>
CC(/N=C1\SC(S(N)(=O)=O)=NN1C)=O

$$$$

Actelion Java MolfileCreator 2.0

  0  0  0  0  0  0              0 V3000
M  V30 BEGIN CTAB
M  V30 COUNTS 27 30 0 0 0
M  V30 BEGIN ATOM
M  V30 1 F -3.2169 4.2065 0.0 0
M  V30 2 C -1.9289 4.628 0.0 0 CFG=2
M  V30 3 C -2.9363 5.7469 0.0 0 CFG=2
M  V30 4 C -2.3941 3.1962 0.0 0 CFG=1
M  V30 5 C -0.4563 4.9411 0.0 0 CFG=2
M  V30 6 C -2.4711 7.1787 0.0 0
M  V30 7 C -4.4089 5.4338 0.0 0
M  V30 8 C -3.7779 4.315 0.0 0
M  V30 9 O -3.8668 2.8832 0.0 0
M  V30 10 C -1.3867 2.0774 0.0 0
M  V30 11 C 0.551 3.8222 0.0 0 CFG=1
M  V30 12 C 0.0089 6.3729 0.0 0
M  V30 13 C -3.4785 8.2975 0.0 0
M  V30 14 C -0.9984 7.4917 0.0 0 CFG=2
M  V30 15 C -5.4163 6.5527 0.0 0
M  V30 16 C 0.0858 2.3904 0.0 0 CFG=1
M  V30 17 C 2.0565 3.8222 0.0 0
M  V30 18 C -4.9511 7.9845 0.0 0
M  V30 19 C -0.5332 8.9236 0.0 0
M  V30 20 C 1.3038 1.5055 0.0 0 CFG=1
M  V30 21 C -0.3477 0.9787 0.0 0
M  V30 22 C 2.5218 2.3904 0.0 0
M  V30 23 O -5.9585 9.1033 0.0 0
M  V30 24 O 0.2035 0.7001 0.0 0
M  V30 25 C 1.3038 0.0 0.0 0
M  V30 26 O 2.6076 -0.7527 0.0 0
M  V30 27 C 0.0 -0.7527 0.0 0
M  V30 END ATOM
M  V30 BEGIN BOND
M  V30 1 1 2 1 CFG=1
M  V30 2 1 3 2
M  V30 3 1 4 2
M  V30 4 1 5 2
M  V30 5 1 3 6
M  V30 6 1 3 7
M  V30 7 1 3 8 CFG=3
M  V30 8 1 4 9 CFG=3
M  V30 9 1 4 10
M  V30 10 1 11 5
M  V30 11 1 5 12 CFG=1
M  V30 12 2 6 13
M  V30 13 1 14 6
M  V30 14 2 7 15
M  V30 15 1 16 10
M  V30 16 1 11 17 CFG=3
M  V30 17 1 13 18
M  V30 18 1 14 19 CFG=1
M  V30 19 1 20 16
M  V30 20 1 16 21 CFG=3
M  V30 21 1 17 22
M  V30 22 2 18 23
M  V30 23 1 20 24 CFG=1
M  V30 24 1 20 25
M  V30 25 2 25 26
M  V30 26 1 25 27
M  V30 27 1 11 16
M  V30 28 1 12 14
M  V30 29 1 15 18
M  V30 30 1 20 22
M  V30 END BOND
M  V30 BEGIN COLLECTION
M  V30 MDLV30/STERAC1 ATOMS=(8 2 3 4 5 11 14 16 20)
M  V30 END COLLECTION
M  V30 END CTAB
M  END
>  <Molecule Name>


>  <status>
-

>  <cas>
426-13-1

>  <name>
FLUOROMETHOLONE

>  <ID>
252

>  <Smiles>
C[C@@H](C[C@@H]([C@H](CC1)[C@](C)(C[C@@H]2O)[C@]1(C(C)=O)O)[C@]2([C@@]1(C)C=C2)F)C1=CC2=O

$$$$

Actelion Java MolfileCreator 2.0

  0  0  0  0  0  0              0 V3000
M  V30 BEGIN CTAB
M  V30 COUNTS 30 33 0 0 0
M  V30 BEGIN ATOM
M  V30 1 S 7.7942 -2.25 0.0 0
M  V30 2 C 7.7942 -0.75 0.0 0
M  V30 3 C 6.4951 -2.9999 0.0 0
M  V30 4 C 6.4951 0.0 0.0 0
M  V30 5 C 9.0932 0.0 0.0 0
M  V30 6 C 5.1961 -2.25 0.0 0
M  V30 7 C 6.4951 -4.5 0.0 0
M  V30 8 N 5.1961 -0.75 0.0 0
M  V30 9 C 6.4951 1.5 0.0 0
M  V30 10 C 9.0932 1.5 0.0 0
M  V30 11 C 3.8971 -3.0 0.0 0
M  V30 12 C 5.1961 -5.25 0.0 0
M  V30 13 C 3.8971 0.0 0.0 0
M  V30 14 C 7.7942 2.25 0.0 0
M  V30 15 C 3.8971 -4.5 0.0 0
M  V30 16 C 2.598 -0.75 0.0 0
M  V30 17 C 7.7942 3.75 0.0 0
M  V30 18 C 1.299 0.0 0.0 0
M  V30 19 F 6.2942 3.7499 0.0 0
M  V30 20 F 7.7942 5.25 0.0 0
M  V30 21 F 9.2942 3.75 0.0 0
M  V30 22 N 0.0 -0.75 0.0 0
M  V30 23 C -1.299 0.0 0.0 0
M  V30 24 C 0.0 -2.25 0.0 0
M  V30 25 C -2.598 -0.7499 0.0 0
M  V30 26 C -1.299 -2.9999 0.0 0
M  V30 27 N -2.598 -2.2499 0.0 0
M  V30 28 C -3.8971 -2.9999 0.0 0
M  V30 29 C -5.1961 -2.2499 0.0 0
M  V30 30 O -6.4951 -2.9999 0.0 0
M  V30 END ATOM
M  V30 BEGIN BOND
M  V30 1 1 1 2
M  V30 2 1 1 3
M  V30 3 2 2 4
M  V30 4 1 2 5
M  V30 5 2 3 6
M  V30 6 1 3 7
M  V30 7 1 4 8
M  V30 8 1 4 9
M  V30 9 2 5 10
M  V30 10 1 6 11
M  V30 11 2 7 12
M  V30 12 1 8 13
M  V30 13 2 9 14
M  V30 14 2 11 15
M  V30 15 1 13 16
M  V30 16 1 14 17
M  V30 17 1 16 18
M  V30 18 1 17 19
M  V30 19 1 17 20
M  V30 20 1 17 21
M  V30 21 1 18 22
M  V30 22 1 22 23
M  V30 23 1 22 24
M  V30 24 1 23 25
M  V30 25 1 24 26
M  V30 26 1 25 27
M  V30 27 1 27 28
M  V30 28 1 28 29
M  V30 29 1 29 30
M  V30 30 1 6 8
M  V30 31 1 10 14
M  V30 32 1 12 15
M  V30 33 1 26 27
M  V30 END BOND
M  V30 END CTAB
M  END
>  <Molecule Name>


>  <status>
-

>  <cas>
69-23-8

>  <name>
FLUPHENAZINE

>  <ID>
253

>  <Smiles>
OCCN1CCN(CCCN2c(cc(C(F)(F)F)cc3)c3Sc3c2cccc3)CC1

$$$$

Actelion Java MolfileCreator 2.0

  0  0  0  0  0  0              0 V3000
M  V30 BEGIN CTAB
M  V30 COUNTS 18 17 0 0 0
M  V30 BEGIN ATOM
M  V30 1 O 6.0621 0.9999 0.0 0
M  V30 2 C 6.0621 0.0 0.0 0
M  V30 3 O 5.1961 -0.5 0.0 0
M  V30 4 N 6.9282 -0.5 0.0 0
M  V30 5 C 4.3301 0.0 0.0 0
M  V30 6 C 7.7942 0.0 0.0 0
M  V30 7 C 3.4641 -0.5 0.0 0 CFG=2
M  V30 8 C 8.6602 -0.5 0.0 0
M  V30 9 C 7.7942 0.9999 0.0 0
M  V30 10 C 2.598 0.0 0.0 0
M  V30 11 C 3.4641 -1.5 0.0 0
M  V30 12 C 3.4641 0.5 0.0 0
M  V30 13 O 1.732 -0.5 0.0 0
M  V30 14 C 2.598 -2.0 0.0 0
M  V30 15 C 0.866 0.0 0.0 0
M  V30 16 C 2.598 -3.0 0.0 0
M  V30 17 O 0.866 1.0 0.0 0
M  V30 18 N 0.0 -0.5 0.0 0
M  V30 END ATOM
M  V30 BEGIN BOND
M  V30 1 2 1 2
M  V30 2 1 2 3
M  V30 3 1 2 4
M  V30 4 1 3 5
M  V30 5 1 4 6
M  V30 6 1 7 5
M  V30 7 1 6 8
M  V30 8 1 6 9
M  V30 9 1 7 10
M  V30 10 1 7 11
M  V30 11 1 7 12 CFG=3
M  V30 12 1 10 13
M  V30 13 1 11 14
M  V30 14 1 13 15
M  V30 15 1 14 16
M  V30 16 2 15 17
M  V30 17 1 15 18
M  V30 END BOND
M  V30 BEGIN COLLECTION
M  V30 MDLV30/STERAC1 ATOMS=(1 7)
M  V30 END COLLECTION
M  V30 END CTAB
M  END
>  <Molecule Name>


>  <status>
-

>  <cas>
78-44-4

>  <name>
CARISOPRODOL

>  <ID>
254

>  <Smiles>
CCCC(C)(COC(N)=O)COC(NC(C)C)=O

$$$$

Actelion Java MolfileCreator 2.0

  0  0  0  0  0  0              0 V3000
M  V30 BEGIN CTAB
M  V30 COUNTS 18 17 0 0 0
M  V30 BEGIN ATOM
M  V30 1 O 6.0621 0.9999 0.0 0
M  V30 2 C 6.0621 0.0 0.0 0
M  V30 3 O 5.1961 -0.5 0.0 0
M  V30 4 N 6.9282 -0.5 0.0 0
M  V30 5 C 4.3301 0.0 0.0 0
M  V30 6 C 7.7942 0.0 0.0 0
M  V30 7 C 3.4641 -0.5 0.0 0 CFG=2
M  V30 8 C 8.6602 -0.5 0.0 0
M  V30 9 C 7.7942 0.9999 0.0 0
M  V30 10 C 2.598 0.0 0.0 0
M  V30 11 C 3.4641 -1.5 0.0 0
M  V30 12 C 3.4641 0.5 0.0 0
M  V30 13 O 1.732 -0.5 0.0 0
M  V30 14 C 2.598 -2.0 0.0 0
M  V30 15 C 0.866 0.0 0.0 0
M  V30 16 C 2.598 -3.0 0.0 0
M  V30 17 O 0.866 1.0 0.0 0
M  V30 18 N 0.0 -0.5 0.0 0
M  V30 END ATOM
M  V30 BEGIN BOND
M  V30 1 2 1 2
M  V30 2 1 2 3
M  V30 3 1 2 4
M  V30 4 1 3 5
M  V30 5 1 4 6
M  V30 6 1 7 5
M  V30 7 1 6 8
M  V30 8 1 6 9
M  V30 9 1 7 10
M  V30 10 1 7 11
M  V30 11 1 7 12 CFG=3
M  V30 12 1 10 13
M  V30 13 1 11 14
M  V30 14 1 13 15
M  V30 15 1 14 16
M  V30 16 2 15 17
M  V30 17 1 15 18
M  V30 END BOND
M  V30 BEGIN COLLECTION
M  V30 MDLV30/STERAC1 ATOMS=(1 7)
M  V30 END COLLECTION
M  V30 END CTAB
M  END
>  <Molecule Name>


>  <status>
-

>  <cas>
78-44-4

>  <name>
CARISOPRODOL

>  <ID>
255

>  <Smiles>
CCCC(C)(COC(N)=O)COC(NC(C)C)=O

$$$$

Actelion Java MolfileCreator 2.0

  0  0  0  0  0  0              0 V3000
M  V30 BEGIN CTAB
M  V30 COUNTS 17 18 0 0 0
M  V30 BEGIN ATOM
M  V30 1 Cl 1.299 0.0 0.0 0
M  V30 2 C 0.0 -0.75 0.0 0
M  V30 3 C -1.299 0.0 0.0 0
M  V30 4 C 0.0 -2.25 0.0 0
M  V30 5 S -1.299 1.5 0.0 0
M  V30 6 C -2.598 -0.75 0.0 0
M  V30 7 C -1.299 -3.0 0.0 0
M  V30 8 O 0.2009 1.5 0.0 0
M  V30 9 O -2.799 1.5 0.0 0
M  V30 10 N -1.299 3.0 0.0 0
M  V30 11 C -2.598 -2.25 0.0 0
M  V30 12 N -1.299 -4.5 0.0 0
M  V30 13 S -3.8971 -3.0 0.0 0
M  V30 14 C -2.598 -5.25 0.0 0
M  V30 15 O -4.647 -1.7009 0.0 0
M  V30 16 O -5.397 -3.0 0.0 0
M  V30 17 N -3.8971 -4.5 0.0 0
M  V30 END ATOM
M  V30 BEGIN BOND
M  V30 1 1 1 2
M  V30 2 2 2 3
M  V30 3 1 2 4
M  V30 4 1 3 5
M  V30 5 1 3 6
M  V30 6 2 4 7
M  V30 7 2 5 8
M  V30 8 2 5 9
M  V30 9 1 5 10
M  V30 10 2 6 11
M  V30 11 1 7 12
M  V30 12 1 11 13
M  V30 13 1 12 14
M  V30 14 2 13 15
M  V30 15 2 13 16
M  V30 16 1 13 17
M  V30 17 1 7 11
M  V30 18 1 14 17
M  V30 END BOND
M  V30 END CTAB
M  END
>  <Molecule Name>


>  <status>
-

>  <cas>
58-93-5

>  <name>
HYDROCHLOROTHIAZIDE

>  <ID>
256

>  <Smiles>
NS(c(cc(c(NCN1)c2)S1(=O)=O)c2Cl)(=O)=O

$$$$

Actelion Java MolfileCreator 2.0

  0  0  0  0  0  0              0 V3000
M  V30 BEGIN CTAB
M  V30 COUNTS 25 28 0 0 0
M  V30 BEGIN ATOM
M  V30 1 S 4.3301 1.0 0.0 0
M  V30 2 C 3.4641 1.5 0.0 0
M  V30 3 C 4.3301 0.0 0.0 0
M  V30 4 C 2.598 0.9999 0.0 0
M  V30 5 C 3.4641 2.4999 0.0 0
M  V30 6 C 3.4641 -0.4999 0.0 0
M  V30 7 C 5.1961 -0.4999 0.0 0
M  V30 8 N 2.598 0.0 0.0 0
M  V30 9 C 1.732 1.4999 0.0 0
M  V30 10 C 2.598 2.9999 0.0 0
M  V30 11 C 3.4641 -1.4999 0.0 0
M  V30 12 C 5.1961 -1.4999 0.0 0
M  V30 13 C 1.732 -0.5 0.0 0
M  V30 14 C 1.732 2.4999 0.0 0
M  V30 15 C 4.3301 -1.9999 0.0 0
M  V30 16 C 0.866 0.0 0.0 0
M  V30 17 S 0.866 2.9999 0.0 0
M  V30 18 C 0.0 -0.5 0.0 0 CFG=2
M  V30 19 C 0.0 2.4999 0.0 0
M  V30 20 N -0.866 0.0 0.0 0
M  V30 21 C 0.0 -1.4999 0.0 0
M  V30 22 C -1.732 -0.4999 0.0 0
M  V30 23 C -0.866 1.0 0.0 0
M  V30 24 C -0.866 -1.9999 0.0 0
M  V30 25 C -1.732 -1.4999 0.0 0
M  V30 END ATOM
M  V30 BEGIN BOND
M  V30 1 1 1 2
M  V30 2 1 1 3
M  V30 3 2 2 4
M  V30 4 1 2 5
M  V30 5 2 3 6
M  V30 6 1 3 7
M  V30 7 1 4 8
M  V30 8 1 4 9
M  V30 9 2 5 10
M  V30 10 1 6 11
M  V30 11 2 7 12
M  V30 12 1 8 13
M  V30 13 2 9 14
M  V30 14 2 11 15
M  V30 15 1 13 16
M  V30 16 1 14 17
M  V30 17 1 18 16 CFG=1
M  V30 18 1 17 19
M  V30 19 1 18 20
M  V30 20 1 18 21
M  V30 21 1 20 22
M  V30 22 1 20 23
M  V30 23 1 21 24
M  V30 24 1 22 25
M  V30 25 1 6 8
M  V30 26 1 10 14
M  V30 27 1 12 15
M  V30 28 1 24 25
M  V30 END BOND
M  V30 BEGIN COLLECTION
M  V30 MDLV30/STERAC1 ATOMS=(1 18)
M  V30 END COLLECTION
M  V30 END CTAB
M  END
>  <Molecule Name>


>  <status>
-

>  <cas>
50-52-2

>  <name>
THIORIDAZINE

>  <ID>
257

>  <Smiles>
CN1C(CCN2c(cc(cc3)SC)c3Sc3c2cccc3)CCCC1

$$$$

Actelion Java MolfileCreator 2.0

  0  0  0  0  0  0              0 V3000
M  V30 BEGIN CTAB
M  V30 COUNTS 21 23 0 0 0
M  V30 BEGIN ATOM
M  V30 1 N 4.3301 0.0 0.0 0
M  V30 2 C 4.2553 0.9972 0.0 0
M  V30 3 C 5.1563 -0.5633 0.0 0
M  V30 4 C 3.4641 -0.5 0.0 0
M  V30 5 C 4.9884 1.6773 0.0 0
M  V30 6 C 3.2998 1.2919 0.0 0
M  V30 7 C 6.1119 -0.2685 0.0 0
M  V30 8 C 4.9338 -1.5382 0.0 0
M  V30 9 C 2.598 0.0 0.0 0
M  V30 10 C 4.7659 2.6523 0.0 0
M  V30 11 C 5.9772 1.5283 0.0 0
M  V30 12 C 3.0773 2.2668 0.0 0
M  V30 13 C 6.8449 -0.9487 0.0 0
M  V30 14 C 6.4772 0.6623 0.0 0
M  V30 15 C 5.6668 -2.2184 0.0 0
M  V30 16 C 1.732 -0.5 0.0 0
M  V30 17 C 3.8103 2.947 0.0 0
M  V30 18 C 6.6224 -1.9236 0.0 0
M  V30 19 N 0.866 0.0 0.0 0
M  V30 20 C 0.866 1.0 0.0 0
M  V30 21 C 0.0 -0.5 0.0 0
M  V30 END ATOM
M  V30 BEGIN BOND
M  V30 1 1 1 2
M  V30 2 1 1 3
M  V30 3 1 1 4
M  V30 4 2 2 5
M  V30 5 1 2 6
M  V30 6 2 3 7
M  V30 7 1 3 8
M  V30 8 1 4 9
M  V30 9 1 5 10
M  V30 10 1 5 11
M  V30 11 2 6 12
M  V30 12 1 7 13
M  V30 13 1 7 14
M  V30 14 2 8 15
M  V30 15 1 9 16
M  V30 16 2 10 17
M  V30 17 2 13 18
M  V30 18 1 16 19
M  V30 19 1 19 20
M  V30 20 1 19 21
M  V30 21 1 11 14
M  V30 22 1 12 17
M  V30 23 1 15 18
M  V30 END BOND
M  V30 END CTAB
M  END
>  <Molecule Name>


>  <status>
-

>  <cas>
50-49-7

>  <name>
IMIPRAMINE

>  <ID>
258

>  <Smiles>
CN(C)CCCN(c1c(CC2)cccc1)c1c2cccc1

$$$$

Actelion Java MolfileCreator 2.0

  0  0  0  0  0  0              0 V3000
M  V30 BEGIN CTAB
M  V30 COUNTS 21 24 0 0 0
M  V30 BEGIN ATOM
M  V30 1 S 3.4641 -1.4999 0.0 0
M  V30 2 C 3.4641 -0.5 0.0 0
M  V30 3 C 2.598 -1.9999 0.0 0
M  V30 4 C 2.598 0.0 0.0 0
M  V30 5 C 4.3301 0.0 0.0 0
M  V30 6 C 1.732 -1.5 0.0 0
M  V30 7 C 2.598 -2.9999 0.0 0
M  V30 8 N 1.732 -0.5 0.0 0
M  V30 9 C 2.598 1.0 0.0 0
M  V30 10 C 4.3301 1.0 0.0 0
M  V30 11 C 0.866 -2.0 0.0 0
M  V30 12 C 1.732 -3.5 0.0 0
M  V30 13 C 0.866 0.0 0.0 0
M  V30 14 C 3.4641 1.5 0.0 0
M  V30 15 C 0.866 -3.0 0.0 0
M  V30 16 C 0.0 -0.5 0.0 0 CFG=2
M  V30 17 C -0.9135 -0.0932 0.0 0
M  V30 18 C -0.1045 -1.4945 0.0 0
M  V30 19 N -1.5826 -0.8364 0.0 0
M  V30 20 C -1.0826 -1.7024 0.0 0
M  V30 21 C -2.5771 -0.7318 0.0 0
M  V30 END ATOM
M  V30 BEGIN BOND
M  V30 1 1 1 2
M  V30 2 1 1 3
M  V30 3 2 2 4
M  V30 4 1 2 5
M  V30 5 2 3 6
M  V30 6 1 3 7
M  V30 7 1 4 8
M  V30 8 1 4 9
M  V30 9 2 5 10
M  V30 10 1 6 11
M  V30 11 2 7 12
M  V30 12 1 8 13
M  V30 13 2 9 14
M  V30 14 2 11 15
M  V30 15 1 16 13 CFG=1
M  V30 16 1 16 17
M  V30 17 1 16 18
M  V30 18 1 17 19
M  V30 19 1 18 20
M  V30 20 1 19 21
M  V30 21 1 6 8
M  V30 22 1 10 14
M  V30 23 1 12 15
M  V30 24 1 19 20
M  V30 END BOND
M  V30 BEGIN COLLECTION
M  V30 MDLV30/STERAC1 ATOMS=(1 16)
M  V30 END COLLECTION
M  V30 END CTAB
M  END
>  <Molecule Name>


>  <status>
DISCONTINUED

>  <cas>
1982-37-2

>  <name>
METHDILAZINE

>  <ID>
259

>  <Smiles>
CN1CC(CN2c(cccc3)c3Sc3c2cccc3)CC1

$$$$

Actelion Java MolfileCreator 2.0

  0  0  0  0  0  0              0 V3000
M  V30 BEGIN CTAB
M  V30 COUNTS 28 31 0 0 0
M  V30 BEGIN ATOM
M  V30 1 O -2.9419 -10.8159 0.0 0
M  V30 2 C -2.4777 -9.3874 0.0 0
M  V30 3 C -3.4828 -8.2712 0.0 0
M  V30 4 C -1.0085 -9.0751 0.0 0
M  V30 5 C -3.0186 -6.8426 0.0 0
M  V30 6 C -0.5444 -7.6466 0.0 0
M  V30 7 C -1.5494 -6.5303 0.0 0 CFG=1
M  V30 8 C -4.0237 -5.7264 0.0 0 CFG=1
M  V30 9 C -1.0853 -5.1018 0.0 0 CFG=1
M  V30 10 C -0.0802 -6.2181 0.0 0
M  V30 11 C -3.5595 -4.2979 0.0 0
M  V30 12 C -5.4929 -6.0387 0.0 0
M  V30 13 C -2.0903 -3.9856 0.0 0 CFG=2
M  V30 14 C 0.3838 -4.7895 0.0 0
M  V30 15 C -1.6262 -2.5571 0.0 0 CFG=2
M  V30 16 C 0.7901 -3.4118 0.0 0
M  V30 17 C -0.157 -2.2448 0.0 0 CFG=1
M  V30 18 C -2.3772 -1.2563 0.0 0
M  V30 19 C 0.0 -0.751 0.0 0 CFG=2
M  V30 20 C 1.4056 -1.9567 0.0 0
M  V30 21 C -1.3721 -0.14 0.0 0
M  V30 22 O 1.3008 0.0 0.0 0
M  V30 23 C 1.2285 -1.4002 0.0 0
M  V30 24 C 1.3008 1.502 0.0 0
M  V30 25 O 1.2969 -2.9675 0.0 0
M  V30 26 C 2.598 -0.8871 0.0 0
M  V30 27 O 2.6016 2.253 0.0 0
M  V30 28 C 0.0 2.253 0.0 0
M  V30 END ATOM
M  V30 BEGIN BOND
M  V30 1 2 1 2
M  V30 2 1 2 3
M  V30 3 1 2 4
M  V30 4 2 3 5
M  V30 5 1 4 6
M  V30 6 1 7 5
M  V30 7 1 8 5
M  V30 8 1 9 7
M  V30 9 1 7 10 CFG=1
M  V30 10 1 8 11
M  V30 11 1 8 12 CFG=3
M  V30 12 1 13 9
M  V30 13 1 9 14 CFG=1
M  V30 14 1 15 13
M  V30 15 1 14 16
M  V30 16 1 17 15
M  V30 17 1 15 18 CFG=1
M  V30 18 1 19 17
M  V30 19 1 17 20 CFG=1
M  V30 20 1 18 21
M  V30 21 1 19 22
M  V30 22 1 19 23 CFG=1
M  V30 23 1 22 24
M  V30 24 2 23 25
M  V30 25 1 23 26
M  V30 26 2 24 27
M  V30 27 1 24 28
M  V30 28 1 6 7
M  V30 29 1 13 11 CFG=3
M  V30 30 1 16 17
M  V30 31 1 19 21
M  V30 END BOND
M  V30 BEGIN COLLECTION
M  V30 MDLV30/STERAC1 ATOMS=(7 7 8 9 13 15 17 19)
M  V30 END COLLECTION
M  V30 END CTAB
M  END
>  <Molecule Name>


>  <status>
-

>  <cas>
71-58-9

>  <name>
MEDROXYPROGESTERONE ACETATE

>  <ID>
260

>  <Smiles>
C[C@H](C[C@H]([C@@H](CC1)[C@@](C)(CC2)[C@@]1(C(C)=O)OC(C)=O)[C@@H]2[C@]1(C)CC2)C1=CC2=O

$$$$

Actelion Java MolfileCreator 2.0

  0  0  0  0  0  0              0 V3000
M  V30 BEGIN CTAB
M  V30 COUNTS 40 41 0 0 0
M  V30 BEGIN ATOM
M  V30 1 O 12.9903 1.0 0.0 0
M  V30 2 C 12.9903 0.0 0.0 0
M  V30 3 O 13.8564 -0.5 0.0 0
M  V30 4 N 12.1243 -0.5 0.0 0
M  V30 5 C 14.7224 0.0 0.0 0
M  V30 6 C 11.2583 0.0 0.0 0
M  V30 7 C 12.1243 -1.5 0.0 0
M  V30 8 C 15.5884 -0.5 0.0 0
M  V30 9 C 14.7224 0.9999 0.0 0
M  V30 10 C 10.3923 -0.5 0.0 0
M  V30 11 C 16.4544 0.0 0.0 0
M  V30 12 C 15.5884 1.5 0.0 0
M  V30 13 C 9.5262 0.0 0.0 0
M  V30 14 N 17.3205 -0.5 0.0 0 CHG=1
M  V30 15 C 16.4544 0.9999 0.0 0
M  V30 16 C 8.6602 -0.5 0.0 0
M  V30 17 C 17.8205 0.366 0.0 0
M  V30 18 C 18.1865 -1.0 0.0 0
M  V30 19 C 16.8205 -1.366 0.0 0
M  V30 20 C 7.7942 0.0 0.0 0
M  V30 21 C 6.9282 -0.5 0.0 0
M  V30 22 C 6.0621 0.0 0.0 0
M  V30 23 C 5.1961 -0.5 0.0 0
M  V30 24 C 4.3301 0.0 0.0 0
M  V30 25 C 3.4641 -0.5 0.0 0
M  V30 26 N 2.598 0.0 0.0 0
M  V30 27 C 1.732 -0.5 0.0 0
M  V30 28 C 2.598 1.0 0.0 0
M  V30 29 O 1.732 -1.5 0.0 0
M  V30 30 O 0.866 0.0 0.0 0
M  V30 31 C 0.0 -0.5 0.0 0
M  V30 32 C -0.866 0.0 0.0 0
M  V30 33 C 0.0 -1.4999 0.0 0
M  V30 34 C -1.732 -0.4999 0.0 0
M  V30 35 C -0.866 -1.9999 0.0 0
M  V30 36 N -2.598 0.0 0.0 0 CHG=1
M  V30 37 C -1.732 -1.4999 0.0 0
M  V30 38 C -3.098 -0.866 0.0 0
M  V30 39 C -3.4641 0.5 0.0 0
M  V30 40 C -2.098 0.866 0.0 0
M  V30 END ATOM
M  V30 BEGIN BOND
M  V30 1 2 1 2
M  V30 2 1 2 3
M  V30 3 1 2 4
M  V30 4 1 3 5
M  V30 5 1 4 6
M  V30 6 1 4 7
M  V30 7 2 5 8
M  V30 8 1 5 9
M  V30 9 1 6 10
M  V30 10 1 8 11
M  V30 11 2 9 12
M  V30 12 1 10 13
M  V30 13 1 11 14
M  V30 14 2 11 15
M  V30 15 1 13 16
M  V30 16 1 14 17
M  V30 17 1 14 18
M  V30 18 1 14 19
M  V30 19 1 16 20
M  V30 20 1 20 21
M  V30 21 1 21 22
M  V30 22 1 22 23
M  V30 23 1 23 24
M  V30 24 1 24 25
M  V30 25 1 25 26
M  V30 26 1 26 27
M  V30 27 1 26 28
M  V30 28 2 27 29
M  V30 29 1 27 30
M  V30 30 1 30 31
M  V30 31 2 31 32
M  V30 32 1 31 33
M  V30 33 1 32 34
M  V30 34 2 33 35
M  V30 35 1 34 36
M  V30 36 2 34 37
M  V30 37 1 36 38
M  V30 38 1 36 39
M  V30 39 1 36 40
M  V30 40 1 12 15
M  V30 41 1 35 37
M  V30 END BOND
M  V30 END CTAB
M  END
>  <Molecule Name>


>  <status>
DISCONTINUED

>  <cas>
16505-84-3

>  <name>
DEMECARIUM

>  <ID>
261

>  <Smiles>
CN(CCCCCCCCCCN(C)C(Oc1cc([N+](C)(C)C)ccc1)=O)C(Oc1cc([N+](C)(C)C)ccc1)=O

$$$$

Actelion Java MolfileCreator 2.0

  0  0  0  0  0  0              0 V3000
M  V30 BEGIN CTAB
M  V30 COUNTS 20 23 0 0 0
M  V30 BEGIN ATOM
M  V30 1 O 1.4931 5.9671 0.0 0
M  V30 2 C 1.3886 4.9726 0.0 0
M  V30 3 C 2.1976 4.3848 0.0 0
M  V30 4 C 0.4751 4.5658 0.0 0
M  V30 5 C 2.0931 3.3903 0.0 0
M  V30 6 C 0.3705 3.5713 0.0 0
M  V30 7 C 1.1796 2.9835 0.0 0 CFG=2
M  V30 8 C 2.9021 2.8025 0.0 0
M  V30 9 C 1.075 1.989 0.0 0 CFG=2
M  V30 10 C 2.7976 1.8079 0.0 0
M  V30 11 C 1.884 1.4012 0.0 0 CFG=1
M  V30 12 C 0.1615 1.5823 0.0 0
M  V30 13 C 1.7795 0.4067 0.0 0 CFG=1
M  V30 14 C 0.057 0.5877 0.0 0
M  V30 15 C 0.866 0.0 0.0 0 CFG=2
M  V30 16 C 2.4487 -0.3364 0.0 0
M  V30 17 C 0.9705 -0.9945 0.0 0 CFG=2
M  V30 18 C 0.0 -0.5 0.0 0
M  V30 19 C 1.9487 -1.2024 0.0 0
M  V30 20 O 0.2274 -1.6636 0.0 0
M  V30 END ATOM
M  V30 BEGIN BOND
M  V30 1 2 1 2
M  V30 2 1 2 3
M  V30 3 1 2 4
M  V30 4 2 3 5
M  V30 5 1 4 6
M  V30 6 1 7 5
M  V30 7 1 5 8
M  V30 8 1 9 7
M  V30 9 1 8 10
M  V30 10 1 11 9
M  V30 11 1 9 12 CFG=3
M  V30 12 1 13 11
M  V30 13 1 12 14
M  V30 14 1 15 13
M  V30 15 1 13 16 CFG=3
M  V30 16 1 17 15
M  V30 17 1 15 18 CFG=3
M  V30 18 1 16 19
M  V30 19 1 17 20 CFG=3
M  V30 20 1 7 6 CFG=1
M  V30 21 1 11 10 CFG=1
M  V30 22 1 14 15
M  V30 23 1 17 19
M  V30 END BOND
M  V30 BEGIN COLLECTION
M  V30 MDLV30/STERAC1 ATOMS=(6 7 9 11 13 15 17)
M  V30 END COLLECTION
M  V30 END CTAB
M  END
>  <Molecule Name>


>  <status>
-

>  <cas>
434-22-0

>  <name>
NANDROLONE

>  <ID>
262

>  <Smiles>
C[C@](CC1)([C@@H](CC2)[C@H](CC3)[C@H]1[C@@H](CC1)C3=CC1=O)[C@H]2O

$$$$

Actelion Java MolfileCreator 2.0

  0  0  0  0  0  0              0 V3000
M  V30 BEGIN CTAB
M  V30 COUNTS 10 10 0 0 0
M  V30 BEGIN ATOM
M  V30 1 N 3.8971 0.0 0.0 0
M  V30 2 N 5.1961 -0.75 0.0 0
M  V30 3 C 2.598 -0.75 0.0 0
M  V30 4 C 1.299 0.0 0.0 0
M  V30 5 C 0.0 -0.75 0.0 0
M  V30 6 C -1.299 0.0 0.0 0
M  V30 7 C 0.0 -2.25 0.0 0
M  V30 8 C -2.598 -0.7499 0.0 0
M  V30 9 C -1.299 -2.9999 0.0 0
M  V30 10 C -2.598 -2.2499 0.0 0
M  V30 END ATOM
M  V30 BEGIN BOND
M  V30 1 1 1 2
M  V30 2 1 1 3
M  V30 3 1 3 4
M  V30 4 1 4 5
M  V30 5 2 5 6
M  V30 6 1 5 7
M  V30 7 1 6 8
M  V30 8 2 7 9
M  V30 9 2 8 10
M  V30 10 1 9 10
M  V30 END BOND
M  V30 END CTAB
M  END
>  <Molecule Name>


>  <status>
-

>  <cas>
51-71-8

>  <name>
PHENELZINE

>  <ID>
263

>  <Smiles>
NNCCc1ccccc1

$$$$

Actelion Java MolfileCreator 2.0

  0  0  0  0  0  0              0 V3000
M  V30 BEGIN CTAB
M  V30 COUNTS 21 23 0 0 0
M  V30 BEGIN ATOM
M  V30 1 O 1.732 -0.5 0.0 0
M  V30 2 C 2.598 0.0 0.0 0
M  V30 3 C 0.866 0.0 0.0 0
M  V30 4 C 3.4641 -0.4999 0.0 0
M  V30 5 C 2.598 0.9999 0.0 0
M  V30 6 C 0.866 1.0 0.0 0
M  V30 7 C 0.0 -0.5 0.0 0
M  V30 8 C 4.3301 0.0 0.0 0
M  V30 9 C 3.4641 1.5 0.0 0
M  V30 10 C 1.732 1.4999 0.0 0
M  V30 11 C 0.0 1.4999 0.0 0
M  V30 12 C -0.866 0.0 0.0 0
M  V30 13 C 0.0 -1.4999 0.0 0
M  V30 14 N 4.3301 1.0 0.0 0
M  V30 15 C 1.732 2.5 0.0 0
M  V30 16 C 0.0 2.5 0.0 0
M  V30 17 C -1.732 -0.4999 0.0 0
M  V30 18 C -0.866 -1.9999 0.0 0
M  V30 19 C 5.1961 1.5 0.0 0
M  V30 20 C 0.866 3.0 0.0 0
M  V30 21 C -1.732 -1.4999 0.0 0
M  V30 END ATOM
M  V30 BEGIN BOND
M  V30 1 1 1 2
M  V30 2 1 1 3
M  V30 3 1 2 4
M  V30 4 1 2 5
M  V30 5 1 3 6
M  V30 6 1 3 7
M  V30 7 1 4 8
M  V30 8 1 5 9
M  V30 9 2 6 10
M  V30 10 1 6 11
M  V30 11 2 7 12
M  V30 12 1 7 13
M  V30 13 1 8 14
M  V30 14 1 10 15
M  V30 15 2 11 16
M  V30 16 1 12 17
M  V30 17 2 13 18
M  V30 18 1 14 19
M  V30 19 2 15 20
M  V30 20 2 17 21
M  V30 21 1 9 14
M  V30 22 1 16 20
M  V30 23 1 18 21
M  V30 END BOND
M  V30 END CTAB
M  END
>  <Molecule Name>


>  <status>
DISCONTINUED

>  <cas>
147-20-6

>  <name>
DIPHENYLPYRALINE

>  <ID>
264

>  <Smiles>
CN(CC1)CCC1OC(c1ccccc1)c1ccccc1

$$$$

Actelion Java MolfileCreator 2.0

  0  0  0  0  0  0              0 V3000
M  V30 BEGIN CTAB
M  V30 COUNTS 20 21 0 0 0
M  V30 BEGIN ATOM
M  V30 1 S 5.2331 -0.7553 0.0 0
M  V30 2 O 4.4778 -2.0635 0.0 0
M  V30 3 O 5.9884 -2.0635 0.0 0
M  V30 4 N 6.5414 0.0 0.0 0
M  V30 5 C 3.9248 0.0 0.0 0
M  V30 6 C 6.5414 1.5106 0.0 0
M  V30 7 C 3.9248 1.5106 0.0 0
M  V30 8 C 2.6165 -0.7553 0.0 0
M  V30 9 N 5.2331 2.266 0.0 0
M  V30 10 C 2.6165 2.266 0.0 0
M  V30 11 C 1.3082 0.0 0.0 0
M  V30 12 C 1.3082 1.5106 0.0 0
M  V30 13 S 0.0 -0.7553 0.0 0
M  V30 14 C 0.0 2.266 0.0 0
M  V30 15 O -0.7553 0.4653 0.0 0
M  V30 16 O 0.7553 -2.0636 0.0 0
M  V30 17 N -1.3082 -1.5106 0.0 0
M  V30 18 F -0.7553 1.133 0.0 0
M  V30 19 F -1.3082 3.0213 0.0 0
M  V30 20 F 0.7553 3.5743 0.0 0
M  V30 END ATOM
M  V30 BEGIN BOND
M  V30 1 2 1 2
M  V30 2 2 1 3
M  V30 3 1 1 4
M  V30 4 1 1 5
M  V30 5 1 4 6
M  V30 6 2 5 7
M  V30 7 1 5 8
M  V30 8 1 6 9
M  V30 9 1 7 10
M  V30 10 2 8 11
M  V30 11 2 10 12
M  V30 12 1 11 13
M  V30 13 1 12 14
M  V30 14 2 13 15
M  V30 15 2 13 16
M  V30 16 1 13 17
M  V30 17 1 14 18
M  V30 18 1 14 19
M  V30 19 1 14 20
M  V30 20 1 7 9
M  V30 21 1 11 12
M  V30 END BOND
M  V30 END CTAB
M  END
>  <Molecule Name>


>  <status>
DISCONTINUED

>  <cas>
135-09-1

>  <name>
HYDROFLUMETHIAZIDE

>  <ID>
265

>  <Smiles>
NS(c(c(C(F)(F)F)c1)cc2c1NCNS2(=O)=O)(=O)=O

$$$$

Actelion Java MolfileCreator 2.0

  0  0  0  0  0  0              0 V3000
M  V30 BEGIN CTAB
M  V30 COUNTS 21 24 0 0 0
M  V30 BEGIN ATOM
M  V30 1 S 3.4641 -1.4999 0.0 0
M  V30 2 C 3.4641 -0.5 0.0 0
M  V30 3 C 2.598 -1.9999 0.0 0
M  V30 4 C 2.598 0.0 0.0 0
M  V30 5 C 4.3301 0.0 0.0 0
M  V30 6 C 1.732 -1.5 0.0 0
M  V30 7 C 2.598 -2.9999 0.0 0
M  V30 8 N 1.732 -0.5 0.0 0
M  V30 9 C 2.598 1.0 0.0 0
M  V30 10 C 4.3301 1.0 0.0 0
M  V30 11 C 0.866 -2.0 0.0 0
M  V30 12 C 1.732 -3.5 0.0 0
M  V30 13 C 0.866 0.0 0.0 0
M  V30 14 C 3.4641 1.5 0.0 0
M  V30 15 C 0.866 -3.0 0.0 0
M  V30 16 C 0.0 -0.5 0.0 0 CFG=2
M  V30 17 C -0.9135 -0.0932 0.0 0
M  V30 18 C -0.1045 -1.4945 0.0 0
M  V30 19 N -1.5826 -0.8364 0.0 0
M  V30 20 C -1.0826 -1.7024 0.0 0
M  V30 21 C -2.5771 -0.7318 0.0 0
M  V30 END ATOM
M  V30 BEGIN BOND
M  V30 1 1 1 2
M  V30 2 1 1 3
M  V30 3 2 2 4
M  V30 4 1 2 5
M  V30 5 2 3 6
M  V30 6 1 3 7
M  V30 7 1 4 8
M  V30 8 1 4 9
M  V30 9 2 5 10
M  V30 10 1 6 11
M  V30 11 2 7 12
M  V30 12 1 8 13
M  V30 13 2 9 14
M  V30 14 2 11 15
M  V30 15 1 16 13 CFG=1
M  V30 16 1 16 17
M  V30 17 1 16 18
M  V30 18 1 17 19
M  V30 19 1 18 20
M  V30 20 1 19 21
M  V30 21 1 6 8
M  V30 22 1 10 14
M  V30 23 1 12 15
M  V30 24 1 19 20
M  V30 END BOND
M  V30 BEGIN COLLECTION
M  V30 MDLV30/STERAC1 ATOMS=(1 16)
M  V30 END COLLECTION
M  V30 END CTAB
M  END
>  <Molecule Name>


>  <status>
DISCONTINUED

>  <cas>
1982-37-2

>  <name>
METHDILAZINE

>  <ID>
266

>  <Smiles>
CN1CC(CN2c(cccc3)c3Sc3c2cccc3)CC1

$$$$

Actelion Java MolfileCreator 2.0

  0  0  0  0  0  0              0 V3000
M  V30 BEGIN CTAB
M  V30 COUNTS 17 18 0 0 0
M  V30 BEGIN ATOM
M  V30 1 O 4.3301 0.0 0.0 0
M  V30 2 C 3.4641 -0.5 0.0 0
M  V30 3 N 2.598 0.0 0.0 0
M  V30 4 C 3.4641 -1.5 0.0 0
M  V30 5 N 1.732 -0.5 0.0 0
M  V30 6 N 2.655 -2.0877 0.0 0
M  V30 7 C 4.2731 -2.0877 0.0 0
M  V30 8 C 0.866 0.0 0.0 0
M  V30 9 O 2.9641 -3.0388 0.0 0
M  V30 10 C 3.9641 -3.0388 0.0 0
M  V30 11 C 0.0 -0.5 0.0 0
M  V30 12 C 4.5518 -3.8478 0.0 0
M  V30 13 C -0.866 0.0 0.0 0
M  V30 14 C 0.0 -1.4999 0.0 0
M  V30 15 C -1.732 -0.4999 0.0 0
M  V30 16 C -0.866 -1.9999 0.0 0
M  V30 17 C -1.732 -1.4999 0.0 0
M  V30 END ATOM
M  V30 BEGIN BOND
M  V30 1 2 1 2
M  V30 2 1 2 3
M  V30 3 1 2 4
M  V30 4 1 3 5
M  V30 5 2 4 6
M  V30 6 1 4 7
M  V30 7 1 5 8
M  V30 8 1 6 9
M  V30 9 2 7 10
M  V30 10 1 8 11
M  V30 11 1 10 12
M  V30 12 2 11 13
M  V30 13 1 11 14
M  V30 14 1 13 15
M  V30 15 2 14 16
M  V30 16 2 15 17
M  V30 17 1 9 10
M  V30 18 1 16 17
M  V30 END BOND
M  V30 END CTAB
M  END
>  <Molecule Name>


>  <status>
-

>  <cas>
59-63-2

>  <name>
ISOCARBOXAZID

>  <ID>
267

>  <Smiles>
Cc1cc(C(NNCc2ccccc2)=O)no1

$$$$

Actelion Java MolfileCreator 2.0

  0  0  0  0  0  0              0 V3000
M  V30 BEGIN CTAB
M  V30 COUNTS 15 14 0 0 0
M  V30 BEGIN ATOM
M  V30 1 S 3.4641 -0.5 0.0 0
M  V30 2 P 2.598 0.0 0.0 0
M  V30 3 C 4.3301 0.0 0.0 0
M  V30 4 O 2.598 -1.0 0.0 0
M  V30 5 O 2.598 1.0 0.0 0
M  V30 6 O 1.732 -0.5 0.0 0
M  V30 7 C 5.1961 -0.5 0.0 0
M  V30 8 C 3.4641 1.5 0.0 0
M  V30 9 C 0.866 0.0 0.0 0
M  V30 10 N 6.0621 0.0 0.0 0 CHG=1
M  V30 11 C 3.4641 2.5 0.0 0
M  V30 12 C 0.0 -0.5 0.0 0
M  V30 13 C 5.5621 0.866 0.0 0
M  V30 14 C 6.9282 0.4999 0.0 0
M  V30 15 C 6.5621 -0.866 0.0 0
M  V30 END ATOM
M  V30 BEGIN BOND
M  V30 1 1 1 2
M  V30 2 1 1 3
M  V30 3 2 2 4
M  V30 4 1 2 5
M  V30 5 1 2 6
M  V30 6 1 3 7
M  V30 7 1 5 8
M  V30 8 1 6 9
M  V30 9 1 7 10
M  V30 10 1 8 11
M  V30 11 1 9 12
M  V30 12 1 10 13
M  V30 13 1 10 14
M  V30 14 1 10 15
M  V30 END BOND
M  V30 END CTAB
M  END
>  <Molecule Name>


>  <status>
-

>  <cas>
6736-03-4

>  <name>
ECHOTHIOPHATE

>  <ID>
268

>  <Smiles>
CCOP(OCC)(SCC[N+](C)(C)C)=O

$$$$

Actelion Java MolfileCreator 2.0

  0  0  0  0  0  0              0 V3000
M  V30 BEGIN CTAB
M  V30 COUNTS 29 32 0 0 0
M  V30 BEGIN ATOM
M  V30 1 N 3.4641 -0.4999 0.0 0 CHG=1
M  V30 2 C 4.3301 0.0 0.0 0
M  V30 3 C 2.598 0.0 0.0 0
M  V30 4 C 3.4641 -1.4999 0.0 0
M  V30 5 C 4.3301 1.0 0.0 0
M  V30 6 C 5.1961 -0.4999 0.0 0
M  V30 7 C 2.598 1.0 0.0 0
M  V30 8 C 1.732 -0.5 0.0 0
M  V30 9 C 5.1961 1.5 0.0 0
M  V30 10 C 3.4641 1.5 0.0 0
M  V30 11 C 6.0621 0.0 0.0 0
M  V30 12 C 0.866 0.0 0.0 0
M  V30 13 C 6.0621 0.9999 0.0 0
M  V30 14 C 0.0 -0.5 0.0 0
M  V30 15 N 6.9282 1.4999 0.0 0
M  V30 16 C -0.9135 -0.0932 0.0 0
M  V30 17 C -0.1045 -1.4945 0.0 0
M  V30 18 C 7.7942 0.9999 0.0 0
M  V30 19 C 6.9282 2.4999 0.0 0
M  V30 20 N -1.5826 -0.8364 0.0 0
M  V30 21 C -1.1214 0.8848 0.0 0
M  V30 22 C -1.0826 -1.7024 0.0 0
M  V30 23 C -2.5771 -0.7318 0.0 0
M  V30 24 C -1.4894 -2.6159 0.0 0
M  V30 25 C -2.9839 0.1816 0.0 0
M  V30 26 C -3.1649 -1.5408 0.0 0
M  V30 27 C -3.9784 0.2861 0.0 0
M  V30 28 C -4.1595 -1.4363 0.0 0
M  V30 29 C -4.5662 -0.5228 0.0 0
M  V30 END ATOM
M  V30 BEGIN BOND
M  V30 1 1 1 2
M  V30 2 2 1 3
M  V30 3 1 1 4
M  V30 4 1 2 5
M  V30 5 2 2 6
M  V30 6 1 3 7
M  V30 7 1 3 8
M  V30 8 2 5 9
M  V30 9 1 5 10
M  V30 10 1 6 11
M  V30 11 2 8 12
M  V30 12 1 9 13
M  V30 13 1 12 14
M  V30 14 1 13 15
M  V30 15 2 14 16
M  V30 16 1 14 17
M  V30 17 1 15 18
M  V30 18 1 15 19
M  V30 19 1 16 20
M  V30 20 1 16 21
M  V30 21 2 17 22
M  V30 22 1 20 23
M  V30 23 1 22 24
M  V30 24 2 23 25
M  V30 25 1 23 26
M  V30 26 1 25 27
M  V30 27 2 26 28
M  V30 28 2 27 29
M  V30 29 2 7 10
M  V30 30 2 11 13
M  V30 31 1 20 22
M  V30 32 1 28 29
M  V30 END BOND
M  V30 END CTAB
M  END
>  <Molecule Name>


>  <status>
DISCONTINUED

>  <cas>
7187-62-4

>  <name>
PYRVINIUM

>  <ID>
269

>  <Smiles>
Cc1cc(/C=C/c(ccc2c3)[n+](C)c2ccc3N(C)C)c(C)n1-c1ccccc1

$$$$

Actelion Java MolfileCreator 2.0

  0  0  0  0  0  0              0 V3000
M  V30 BEGIN CTAB
M  V30 COUNTS 23 26 0 0 0
M  V30 BEGIN ATOM
M  V30 1 O 3.4641 -0.5 0.0 0
M  V30 2 C 2.598 0.0 0.0 0 CFG=2
M  V30 3 C 2.598 1.0 0.0 0
M  V30 4 C 2.598 -1.0 0.0 0 CFG=1
M  V30 5 C 1.732 -0.5 0.0 0
M  V30 6 C 3.4641 1.5 0.0 0
M  V30 7 C 1.732 1.4999 0.0 0
M  V30 8 C 1.789 -1.5877 0.0 0 CFG=1
M  V30 9 C 3.407 -1.5877 0.0 0
M  V30 10 C 0.866 0.0 0.0 0
M  V30 11 C 3.4641 2.5 0.0 0
M  V30 12 C 1.732 2.5 0.0 0
M  V30 13 C 1.2497 -2.8558 0.0 0
M  V30 14 C 2.098 -2.5388 0.0 0
M  V30 15 C 3.098 -2.5388 0.0 0 CFG=1
M  V30 16 N 0.0 -0.5 0.0 0
M  V30 17 C 2.598 3.0 0.0 0
M  V30 18 C 2.0587 -3.4436 0.0 0
M  V30 19 C -0.866 0.0 0.0 0
M  V30 20 C 0.0 -1.4999 0.0 0
M  V30 21 C -1.732 -0.4999 0.0 0
M  V30 22 C -0.866 -1.9999 0.0 0
M  V30 23 C -1.732 -1.4999 0.0 0
M  V30 END ATOM
M  V30 BEGIN BOND
M  V30 1 1 2 1
M  V30 2 1 2 3
M  V30 3 1 2 4 CFG=1
M  V30 4 1 2 5
M  V30 5 2 3 6
M  V30 6 1 3 7
M  V30 7 1 8 4
M  V30 8 1 4 9 CFG=3
M  V30 9 1 5 10
M  V30 10 1 6 11
M  V30 11 2 7 12
M  V30 12 1 8 13 CFG=3
M  V30 13 1 8 14
M  V30 14 1 15 9 CFG=3
M  V30 15 1 10 16
M  V30 16 2 11 17
M  V30 17 2 13 18
M  V30 18 1 16 19
M  V30 19 1 16 20
M  V30 20 1 19 21
M  V30 21 1 20 22
M  V30 22 1 21 23
M  V30 23 1 12 17
M  V30 24 1 14 15
M  V30 25 1 15 18
M  V30 26 1 22 23
M  V30 END BOND
M  V30 BEGIN COLLECTION
M  V30 MDLV30/STERAC1 ATOMS=(4 2 4 8 15)
M  V30 END COLLECTION
M  V30 END CTAB
M  END
>  <Molecule Name>


>  <status>
DISCONTINUED

>  <cas>
514-65-8

>  <name>
BIPERIDEN

>  <ID>
270

>  <Smiles>
O[C@@](CCN1CCCCC1)([C@H](C1)[C@H]2C=C[C@@H]1C2)c1ccccc1

$$$$

Actelion Java MolfileCreator 2.0

  0  0  0  0  0  0              0 V3000
M  V30 BEGIN CTAB
M  V30 COUNTS 16 17 0 0 0
M  V30 BEGIN ATOM
M  V30 1 O 2.598 0.0 0.0 0
M  V30 2 N 1.732 -0.5 0.0 0 CHG=1
M  V30 3 O 0.866 0.0 0.0 0
M  V30 4 O 1.732 -1.5 0.0 0 CHG=-1
M  V30 5 C 0.0 -0.5 0.0 0 CFG=1
M  V30 6 C -0.9135 -0.0932 0.0 0 CFG=1
M  V30 7 C -0.1045 -1.4945 0.0 0
M  V30 8 O -1.4135 0.7727 0.0 0
M  V30 9 C -1.5826 -0.8364 0.0 0 CHG=-1 VAL=3
M  V30 10 O -1.0826 -1.7024 0.0 0
M  V30 11 C -2.3916 0.5648 0.0 0
M  V30 12 C -2.4962 -0.4296 0.0 0 CFG=2
M  V30 13 O -3.3622 -0.9296 0.0 0
M  V30 14 N -4.2282 -0.4296 0.0 0 CHG=1
M  V30 15 O -4.2282 0.5703 0.0 0
M  V30 16 O -5.0942 -0.9296 0.0 0 CHG=-1
M  V30 END ATOM
M  V30 BEGIN BOND
M  V30 1 2 1 2
M  V30 2 1 2 3
M  V30 3 1 2 4
M  V30 4 1 5 3 CFG=3
M  V30 5 1 6 5
M  V30 6 1 5 7
M  V30 7 1 6 8 CFG=3
M  V30 8 1 6 9
M  V30 9 1 7 10
M  V30 10 1 8 11
M  V30 11 1 12 9
M  V30 12 1 12 13 CFG=1
M  V30 13 1 13 14
M  V30 14 2 14 15
M  V30 15 1 14 16
M  V30 16 1 9 10
M  V30 17 1 11 12
M  V30 END BOND
M  V30 BEGIN COLLECTION
M  V30 MDLV30/STERAC1 ATOMS=(3 5 6 12)
M  V30 END COLLECTION
M  V30 END CTAB
M  END
>  <Molecule Name>


>  <status>
-

>  <cas>
87-33-2

>  <name>
ISOSORBIDE DINITRATE

>  <ID>
271

>  <Smiles>
[O-][N+](O[C@@H](CO[C@H]12)[C-]2OC[C@H]1O[N+]([O-])=O)=O

$$$$

Actelion Java MolfileCreator 2.0

  0  0  0  0  0  0              0 V3000
M  V30 BEGIN CTAB
M  V30 COUNTS 13 14 0 0 0
M  V30 BEGIN ATOM
M  V30 1 O 2.598 0.0 0.0 0
M  V30 2 N 1.732 -0.5 0.0 0 CHG=1
M  V30 3 O 0.866 0.0 0.0 0
M  V30 4 O 1.732 -1.5 0.0 0 CHG=-1
M  V30 5 C 0.0 -0.5 0.0 0 CFG=2
M  V30 6 C -0.9135 -0.0932 0.0 0 CFG=2
M  V30 7 C -0.1045 -1.4945 0.0 0
M  V30 8 O -1.4135 0.7727 0.0 0
M  V30 9 C -1.5826 -0.8364 0.0 0 CFG=1
M  V30 10 O -1.0826 -1.7024 0.0 0
M  V30 11 C -2.3916 0.5648 0.0 0
M  V30 12 C -2.4962 -0.4296 0.0 0 CFG=1
M  V30 13 O -3.3622 -0.9296 0.0 0
M  V30 END ATOM
M  V30 BEGIN BOND
M  V30 1 2 1 2
M  V30 2 1 2 3
M  V30 3 1 2 4
M  V30 4 1 5 3 CFG=1
M  V30 5 1 6 5
M  V30 6 1 5 7
M  V30 7 1 6 8 CFG=1
M  V30 8 1 9 6
M  V30 9 1 7 10
M  V30 10 1 8 11
M  V30 11 1 12 9
M  V30 12 1 12 13 CFG=3
M  V30 13 1 9 10 CFG=1
M  V30 14 1 11 12
M  V30 END BOND
M  V30 BEGIN COLLECTION
M  V30 MDLV30/STERAC1 ATOMS=(4 5 6 9 12)
M  V30 END COLLECTION
M  V30 END CTAB
M  END
>  <Molecule Name>


>  <status>
-

>  <cas>
16051-77-7

>  <name>
ISOSORBIDE MONONITRATE

>  <ID>
272

>  <Smiles>
[O-][N+](O[C@@H](CO[C@H]12)[C@@H]1OC[C@H]2O)=O

$$$$

Actelion Java MolfileCreator 2.0

  0  0  0  0  0  0              0 V3000
M  V30 BEGIN CTAB
M  V30 COUNTS 21 22 0 0 0
M  V30 BEGIN ATOM
M  V30 1 O 2.598 1.0 0.0 0
M  V30 2 C 2.598 0.0 0.0 0
M  V30 3 N 3.4641 -0.5 0.0 0
M  V30 4 C 1.732 -0.5 0.0 0 CFG=1
M  V30 5 C 4.3301 0.0 0.0 0
M  V30 6 C 3.4641 -1.5 0.0 0
M  V30 7 C 1.732 -1.5 0.0 0
M  V30 8 C 0.866 0.0 0.0 0
M  V30 9 C 5.1961 -0.5 0.0 0
M  V30 10 C 4.3301 -2.0 0.0 0
M  V30 11 C 0.866 -1.9999 0.0 0
M  V30 12 C 2.598 -2.0 0.0 0
M  V30 13 O 0.0 -0.5 0.0 0
M  V30 14 C 5.1961 -1.5 0.0 0
M  V30 15 C 6.0621 0.0 0.0 0
M  V30 16 C 0.866 -2.9999 0.0 0
M  V30 17 C 2.598 -3.0 0.0 0
M  V30 18 C 6.0621 -2.0 0.0 0
M  V30 19 C 6.9282 -0.5 0.0 0
M  V30 20 C 1.732 -3.5 0.0 0
M  V30 21 N 6.9282 -1.5 0.0 0
M  V30 END ATOM
M  V30 BEGIN BOND
M  V30 1 2 1 2
M  V30 2 1 2 3
M  V30 3 1 4 2
M  V30 4 1 3 5
M  V30 5 1 3 6
M  V30 6 1 4 7
M  V30 7 1 4 8 CFG=1
M  V30 8 1 5 9
M  V30 9 1 6 10
M  V30 10 2 7 11
M  V30 11 1 7 12
M  V30 12 1 8 13
M  V30 13 2 9 14
M  V30 14 1 9 15
M  V30 15 1 11 16
M  V30 16 2 12 17
M  V30 17 1 14 18
M  V30 18 2 15 19
M  V30 19 2 16 20
M  V30 20 2 18 21
M  V30 21 1 17 20
M  V30 22 1 19 21
M  V30 END BOND
M  V30 BEGIN COLLECTION
M  V30 MDLV30/STERAC1 ATOMS=(1 4)
M  V30 END COLLECTION
M  V30 END CTAB
M  END
>  <Molecule Name>


>  <status>
-

>  <cas>
1508-75-4

>  <name>
TROPICAMIDE

>  <ID>
273

>  <Smiles>
CCN(Cc1ccncc1)C(C(CO)c1ccccc1)=O

$$$$

Actelion Java MolfileCreator 2.0

  0  0  0  0  0  0              0 V3000
M  V30 BEGIN CTAB
M  V30 COUNTS 18 19 0 0 0
M  V30 BEGIN ATOM
M  V30 1 O 2.598 -2.25 0.0 0
M  V30 2 C 2.598 -0.75 0.0 0
M  V30 3 N 1.299 0.0 0.0 0
M  V30 4 C 3.8971 0.0 0.0 0 CFG=1
M  V30 5 C 0.0 -0.75 0.0 0
M  V30 6 N 5.1961 -0.75 0.0 0
M  V30 7 C 3.8971 1.4999 0.0 0
M  V30 8 C -1.299 0.0 0.0 0
M  V30 9 C 0.0 -2.25 0.0 0
M  V30 10 C 6.4951 0.0 0.0 0
M  V30 11 C 5.1961 -2.25 0.0 0
M  V30 12 C 5.1961 2.2499 0.0 0
M  V30 13 C -2.598 -0.7499 0.0 0
M  V30 14 C -1.299 1.5 0.0 0
M  V30 15 C -1.299 -2.9999 0.0 0
M  V30 16 C 1.299 -3.0 0.0 0
M  V30 17 C 6.4951 1.4999 0.0 0
M  V30 18 C -2.598 -2.2499 0.0 0
M  V30 END ATOM
M  V30 BEGIN BOND
M  V30 1 2 1 2
M  V30 2 1 2 3
M  V30 3 1 4 2 CFG=3
M  V30 4 1 3 5
M  V30 5 1 4 6
M  V30 6 1 4 7
M  V30 7 2 5 8
M  V30 8 1 5 9
M  V30 9 1 6 10
M  V30 10 1 6 11
M  V30 11 1 7 12
M  V30 12 1 8 13
M  V30 13 1 8 14
M  V30 14 2 9 15
M  V30 15 1 9 16
M  V30 16 1 10 17
M  V30 17 2 13 18
M  V30 18 1 12 17
M  V30 19 1 15 18
M  V30 END BOND
M  V30 BEGIN COLLECTION
M  V30 MDLV30/STERAC1 ATOMS=(1 4)
M  V30 END COLLECTION
M  V30 END CTAB
M  END
>  <Molecule Name>


>  <status>
-

>  <cas>
96-88-8

>  <name>
MEPIVACAINE

>  <ID>
274

>  <Smiles>
Cc1cccc(C)c1NC(C1N(C)CCCC1)=O

$$$$

Actelion Java MolfileCreator 2.0

  0  0  0  0  0  0              0 V3000
M  V30 BEGIN CTAB
M  V30 COUNTS 20 21 0 0 0
M  V30 BEGIN ATOM
M  V30 1 Cl 7.9021 -2.2811 0.0 0
M  V30 2 C 7.9021 -0.7603 0.0 0
M  V30 3 C 6.5851 0.0 0.0 0
M  V30 4 C 9.2191 0.0 0.0 0
M  V30 5 C 6.7052 1.3724 0.0 0
M  V30 6 C 5.2681 -0.7603 0.0 0 CFG=1
M  V30 7 C 9.2191 1.5207 0.0 0
M  V30 8 C 7.9021 2.2811 0.0 0
M  V30 9 O 5.2681 -2.2811 0.0 0
M  V30 10 C 5.2681 0.7603 0.0 0
M  V30 11 C 3.951 0.0 0.0 0
M  V30 12 C 6.3742 1.8371 0.0 0
M  V30 13 C 3.951 1.5207 0.0 0
M  V30 14 C 2.634 -0.7603 0.0 0
M  V30 15 C 6.5851 3.0415 0.0 0
M  V30 16 C 3.951 3.0415 0.0 0
M  V30 17 N 1.317 0.0 0.0 0
M  V30 18 C 5.2681 3.8019 0.0 0
M  V30 19 C 1.317 1.5207 0.0 0
M  V30 20 C 0.0 -0.7603 0.0 0
M  V30 END ATOM
M  V30 BEGIN BOND
M  V30 1 1 1 2
M  V30 2 2 2 3
M  V30 3 1 2 4
M  V30 4 1 3 5
M  V30 5 1 6 3
M  V30 6 2 4 7
M  V30 7 2 5 8
M  V30 8 1 6 9
M  V30 9 1 6 10 CFG=1
M  V30 10 1 6 11
M  V30 11 2 10 12
M  V30 12 1 10 13
M  V30 13 1 11 14
M  V30 14 1 12 15
M  V30 15 2 13 16
M  V30 16 1 14 17
M  V30 17 2 15 18
M  V30 18 1 17 19
M  V30 19 1 17 20
M  V30 20 1 7 8
M  V30 21 1 16 18
M  V30 END BOND
M  V30 BEGIN COLLECTION
M  V30 MDLV30/STERAC1 ATOMS=(1 6)
M  V30 END COLLECTION
M  V30 END CTAB
M  END
>  <Molecule Name>


>  <status>
DISCONTINUED

>  <cas>
791-35-5

>  <name>
CHLOPHEDIANOL

>  <ID>
275

>  <Smiles>
CN(C)CCC(c1ccccc1)(c(cccc1)c1Cl)O

$$$$

Actelion Java MolfileCreator 2.0

  0  0  0  0  0  0              0 V3000
M  V30 BEGIN CTAB
M  V30 COUNTS 26 28 0 0 0
M  V30 BEGIN ATOM
M  V30 1 Cl 7.7942 -6.75 0.0 0
M  V30 2 C 7.7942 -5.25 0.0 0
M  V30 3 C 9.0932 -4.5 0.0 0
M  V30 4 C 6.4952 -4.5 0.0 0
M  V30 5 S 10.3923 -5.25 0.0 0
M  V30 6 C 9.0932 -3.0 0.0 0
M  V30 7 C 6.4952 -3.0 0.0 0
M  V30 8 O 9.6423 -6.549 0.0 0
M  V30 9 O 11.1423 -3.9509 0.0 0
M  V30 10 N 11.6913 -6.0 0.0 0
M  V30 11 C 7.7942 -2.25 0.0 0
M  V30 12 N 5.1961 -2.25 0.0 0
M  V30 13 S 7.7942 -0.75 0.0 0
M  V30 14 C 5.1961 -0.75 0.0 0
M  V30 15 O 9.2942 -0.75 0.0 0
M  V30 16 O 8.5442 0.549 0.0 0
M  V30 17 N 6.4952 0.0 0.0 0
M  V30 18 C 3.8971 0.0 0.0 0
M  V30 19 S 2.598 -0.75 0.0 0
M  V30 20 C 1.299 0.0 0.0 0
M  V30 21 C 0.0 -0.75 0.0 0
M  V30 22 C -1.299 0.0 0.0 0
M  V30 23 C 0.0 -2.25 0.0 0
M  V30 24 C -2.598 -0.75 0.0 0
M  V30 25 C -1.299 -3.0 0.0 0
M  V30 26 C -2.598 -2.25 0.0 0
M  V30 END ATOM
M  V30 BEGIN BOND
M  V30 1 1 1 2
M  V30 2 2 2 3
M  V30 3 1 2 4
M  V30 4 1 3 5
M  V30 5 1 3 6
M  V30 6 2 4 7
M  V30 7 2 5 8
M  V30 8 2 5 9
M  V30 9 1 5 10
M  V30 10 2 6 11
M  V30 11 1 7 12
M  V30 12 1 11 13
M  V30 13 1 12 14
M  V30 14 2 13 15
M  V30 15 2 13 16
M  V30 16 1 13 17
M  V30 17 1 14 18
M  V30 18 1 18 19
M  V30 19 1 19 20
M  V30 20 1 20 21
M  V30 21 2 21 22
M  V30 22 1 21 23
M  V30 23 1 22 24
M  V30 24 2 23 25
M  V30 25 2 24 26
M  V30 26 1 7 11
M  V30 27 2 14 17
M  V30 28 1 25 26
M  V30 END BOND
M  V30 END CTAB
M  END
>  <Molecule Name>


>  <status>
DISCONTINUED

>  <cas>
91-33-8

>  <name>
BENZTHIAZIDE

>  <ID>
276

>  <Smiles>
NS(c(cc(c(NC(CSCc1ccccc1)=N1)c2)S1(=O)=O)c2Cl)(=O)=O

$$$$

Actelion Java MolfileCreator 2.0

  0  0  0  0  0  0              0 V3000
M  V30 BEGIN CTAB
M  V30 COUNTS 14 14 0 0 0
M  V30 BEGIN ATOM
M  V30 1 Cl 5.1961 -0.5 0.0 0
M  V30 2 C 4.3301 0.0 0.0 0
M  V30 3 C 3.4641 -0.5 0.0 0
M  V30 4 N 2.598 0.0 0.0 0
M  V30 5 P 2.598 1.0 0.0 0 CFG=2
M  V30 6 C 1.732 -0.5 0.0 0
M  V30 7 O 1.732 0.4999 0.0 0
M  V30 8 O 3.4641 1.5 0.0 0
M  V30 9 N 1.732 1.4999 0.0 0
M  V30 10 C 0.866 0.0 0.0 0
M  V30 11 C 3.4641 2.5 0.0 0
M  V30 12 C 1.732 2.5 0.0 0
M  V30 13 Cl 0.0 -0.5 0.0 0
M  V30 14 C 2.598 3.0 0.0 0
M  V30 END ATOM
M  V30 BEGIN BOND
M  V30 1 1 1 2
M  V30 2 1 2 3
M  V30 3 1 3 4
M  V30 4 1 5 4 CFG=1
M  V30 5 1 4 6
M  V30 6 2 5 7
M  V30 7 1 5 8
M  V30 8 1 5 9
M  V30 9 1 6 10
M  V30 10 1 8 11
M  V30 11 1 9 12
M  V30 12 1 10 13
M  V30 13 1 11 14
M  V30 14 1 12 14
M  V30 END BOND
M  V30 BEGIN COLLECTION
M  V30 MDLV30/STERAC1 ATOMS=(1 5)
M  V30 END COLLECTION
M  V30 END CTAB
M  END
>  <Molecule Name>


>  <status>
-

>  <cas>
50-18-0

>  <name>
CYCLOPHOSPHAMIDE

>  <ID>
277

>  <Smiles>
O=P1(N(CCCl)CCCl)OCCCN1

$$$$
_c001
Actelion Java MolfileCreator 2.0

  0  0  0  0  0  0              0 V3000
M  V30 BEGIN CTAB
M  V30 COUNTS 29 33 0 0 0
M  V30 BEGIN ATOM
M  V30 1 S 2.6064 -0.7524 0.0 0
M  V30 2 C 2.6064 -2.2572 0.0 0
M  V30 3 C 3.9096 0.0 0.0 0 CFG=2
M  V30 4 O 3.9096 -3.0096 0.0 0
M  V30 5 C 1.3032 -3.0096 0.0 0
M  V30 6 C 3.9096 1.5048 0.0 0 CFG=1
M  V30 7 C 5.2129 -0.7524 0.0 0
M  V30 8 C 5.2129 2.2572 0.0 0 CFG=2
M  V30 9 C 2.6064 2.2572 0.0 0 CFG=2
M  V30 10 C 6.5161 0.0 0.0 0
M  V30 11 C 6.5161 1.5048 0.0 0 CFG=1
M  V30 12 C 5.2129 3.7621 0.0 0
M  V30 13 C 2.6064 3.7621 0.0 0 CFG=1
M  V30 14 C 1.1752 1.7922 0.0 0
M  V30 15 C 7.8193 -0.7524 0.0 0
M  V30 16 C 7.8193 2.2572 0.0 0
M  V30 17 C 6.5161 3.0096 0.0 0
M  V30 18 C 3.9096 4.5145 0.0 0
M  V30 19 C 1.1752 4.2271 0.0 0 CFG=1
M  V30 20 C 2.5939 5.1895 0.0 0
M  V30 21 C 0.2907 3.0096 0.0 0
M  V30 22 C 9.1226 0.0 0.0 0
M  V30 23 C 9.1226 1.5048 0.0 0
M  V30 24 O 1.9873 5.4791 0.0 0
M  V30 25 C -0.2559 4.6921 0.0 0
M  V30 26 O 10.4258 -0.7524 0.0 0
M  V30 27 C 1.1752 6.662 0.0 0
M  V30 28 C -0.2559 6.1969 0.0 0
M  V30 29 O 1.6402 8.0932 0.0 0
M  V30 END ATOM
M  V30 BEGIN BOND
M  V30 1 1 1 2
M  V30 2 1 3 1 CFG=3
M  V30 3 2 2 4
M  V30 4 1 2 5
M  V30 5 1 6 3 CFG=3
M  V30 6 1 3 7
M  V30 7 1 8 6
M  V30 8 1 9 6
M  V30 9 1 7 10
M  V30 10 1 11 8
M  V30 11 1 8 12 CFG=1
M  V30 12 1 13 9
M  V30 13 1 9 14 CFG=1
M  V30 14 2 10 15
M  V30 15 1 11 16
M  V30 16 1 11 17 CFG=1
M  V30 17 1 12 18
M  V30 18 1 19 13
M  V30 19 1 13 20 CFG=1
M  V30 20 1 14 21
M  V30 21 1 15 22
M  V30 22 1 16 23
M  V30 23 1 19 24
M  V30 24 1 19 25 CFG=3
M  V30 25 2 22 26
M  V30 26 1 24 27
M  V30 27 1 25 28
M  V30 28 2 27 29
M  V30 29 1 10 11
M  V30 30 1 13 18
M  V30 31 1 19 21
M  V30 32 1 22 23
M  V30 33 1 27 28
M  V30 END BOND
M  V30 BEGIN COLLECTION
M  V30 MDLV30/STERAC1 ATOMS=(7 3 6 8 9 11 13 19)
M  V30 END COLLECTION
M  V30 END CTAB
M  END
>  <Molecule Name>
_c001

>  <status>
-

>  <cas>
52-01-7

>  <name>
SPIRONOLACTONE

>  <ID>
278

>  <Smiles>
C[C@@](CC[C@H]1[C@](C)(CC2)C(C3)=CC2=O)([C@H](CC2)[C@H]1[C@H]3SC(C)=O)[C@]2(CC1)OC1=O

$$$$

Actelion Java MolfileCreator 2.0

  0  0  0  0  0  0              0 V3000
M  V30 BEGIN CTAB
M  V30 COUNTS 27 29 0 0 0
M  V30 BEGIN ATOM
M  V30 1 S 5.2228 -0.7538 0.0 0
M  V30 2 O 6.7305 -0.7538 0.0 0
M  V30 3 O 5.9767 0.5518 0.0 0
M  V30 4 N 3.9171 0.0 0.0 0
M  V30 5 C 5.2228 -2.2615 0.0 0
M  V30 6 C 2.6114 -0.7538 0.0 0 CFG=2
M  V30 7 C 3.9171 -3.0154 0.0 0
M  V30 8 C 6.5286 -3.0154 0.0 0
M  V30 9 N 2.6114 -2.2615 0.0 0
M  V30 10 C 1.3057 0.0 0.0 0
M  V30 11 C 3.9171 -4.5231 0.0 0
M  V30 12 C 6.5286 -4.5231 0.0 0
M  V30 13 C 0.0 -0.7538 0.0 0
M  V30 14 C 5.2228 -5.277 0.0 0
M  V30 15 S 7.8343 -5.277 0.0 0
M  V30 16 C -1.3057 0.0 0.0 0
M  V30 17 C 0.0 -2.2615 0.0 0
M  V30 18 C 5.2228 -6.7847 0.0 0
M  V30 19 O 7.1562 -6.539 0.0 0
M  V30 20 O 8.5881 -3.9712 0.0 0
M  V30 21 N 9.14 -6.0308 0.0 0
M  V30 22 C -2.6114 -0.7538 0.0 0
M  V30 23 C -1.3057 -3.0154 0.0 0
M  V30 24 F 6.5791 -6.8721 0.0 0
M  V30 25 F 5.2228 -8.2924 0.0 0
M  V30 26 F 3.7151 -6.7847 0.0 0
M  V30 27 C -2.6114 -2.2615 0.0 0
M  V30 END ATOM
M  V30 BEGIN BOND
M  V30 1 2 1 2
M  V30 2 2 1 3
M  V30 3 1 1 4
M  V30 4 1 1 5
M  V30 5 1 6 4
M  V30 6 2 5 7
M  V30 7 1 5 8
M  V30 8 1 6 9
M  V30 9 1 6 10 CFG=3
M  V30 10 1 7 11
M  V30 11 2 8 12
M  V30 12 1 10 13
M  V30 13 2 11 14
M  V30 14 1 12 15
M  V30 15 2 13 16
M  V30 16 1 13 17
M  V30 17 1 14 18
M  V30 18 2 15 19
M  V30 19 2 15 20
M  V30 20 1 15 21
M  V30 21 1 16 22
M  V30 22 2 17 23
M  V30 23 1 18 24
M  V30 24 1 18 25
M  V30 25 1 18 26
M  V30 26 2 22 27
M  V30 27 1 7 9
M  V30 28 1 12 14
M  V30 29 1 23 27
M  V30 END BOND
M  V30 BEGIN COLLECTION
M  V30 MDLV30/STERAC1 ATOMS=(1 6)
M  V30 END COLLECTION
M  V30 END CTAB
M  END
>  <Molecule Name>


>  <status>
DISCONTINUED

>  <cas>
73-48-3

>  <name>
BENDROFLUMETHIAZIDE

>  <ID>
279

>  <Smiles>
NS(c(c(C(F)(F)F)c1)cc2c1NC(Cc1ccccc1)NS2(=O)=O)(=O)=O

$$$$

Actelion Java MolfileCreator 2.0

  0  0  0  0  0  0              0 V3000
M  V30 BEGIN CTAB
M  V30 COUNTS 9 9 0 0 0
M  V30 BEGIN ATOM
M  V30 1 F 1.299 0.0 0.0 0
M  V30 2 C 0.0 -0.75 0.0 0
M  V30 3 C -1.299 0.0 0.0 0
M  V30 4 C 0.0 -2.25 0.0 0
M  V30 5 O -1.299 1.5 0.0 0
M  V30 6 N -2.598 -0.7499 0.0 0
M  V30 7 N -1.299 -2.9999 0.0 0
M  V30 8 C -2.598 -2.2499 0.0 0
M  V30 9 O -3.8971 -2.9999 0.0 0
M  V30 END ATOM
M  V30 BEGIN BOND
M  V30 1 1 1 2
M  V30 2 1 2 3
M  V30 3 2 2 4
M  V30 4 2 3 5
M  V30 5 1 3 6
M  V30 6 1 4 7
M  V30 7 1 6 8
M  V30 8 2 8 9
M  V30 9 1 7 8
M  V30 END BOND
M  V30 END CTAB
M  END
>  <Molecule Name>


>  <status>
-

>  <cas>
51-21-8

>  <name>
FLUOROURACIL

>  <ID>
280

>  <Smiles>
O=C(C(F)=CN1)NC1=O

$$$$

Actelion Java MolfileCreator 2.0

  0  0  0  0  0  0              0 V3000
M  V30 BEGIN CTAB
M  V30 COUNTS 14 15 0 0 0
M  V30 BEGIN ATOM
M  V30 1 O 1.299 1.5 0.0 0
M  V30 2 C 1.299 0.0 0.0 0 CFG=2
M  V30 3 C 2.598 2.2499 0.0 0
M  V30 4 C 0.0 -0.75 0.0 0
M  V30 5 C 2.598 -0.75 0.0 0 CFG=2
M  V30 6 C 3.8971 1.4999 0.0 0
M  V30 7 C -1.299 0.0 0.0 0
M  V30 8 C 0.0 -2.25 0.0 0
M  V30 9 N 3.8971 0.0 0.0 0
M  V30 10 C 2.598 -2.25 0.0 0
M  V30 11 C -2.598 -0.7499 0.0 0
M  V30 12 C -1.299 -2.9999 0.0 0
M  V30 13 C 5.1961 -0.75 0.0 0
M  V30 14 C -2.598 -2.2499 0.0 0
M  V30 END ATOM
M  V30 BEGIN BOND
M  V30 1 1 2 1
M  V30 2 1 1 3
M  V30 3 1 2 4 CFG=1
M  V30 4 1 5 2
M  V30 5 1 3 6
M  V30 6 2 4 7
M  V30 7 1 4 8
M  V30 8 1 5 9
M  V30 9 1 5 10 CFG=3
M  V30 10 1 7 11
M  V30 11 2 8 12
M  V30 12 1 9 13
M  V30 13 2 11 14
M  V30 14 1 6 9
M  V30 15 1 12 14
M  V30 END BOND
M  V30 BEGIN COLLECTION
M  V30 MDLV30/STERAC1 ATOMS=(2 2 5)
M  V30 END COLLECTION
M  V30 END CTAB
M  END
>  <Molecule Name>


>  <status>
-

>  <cas>
634-03-7

>  <name>
PHENDIMETRAZINE

>  <ID>
281

>  <Smiles>
C[C@H]1N(C)CCO[C@@H]1c1ccccc1

$$$$

Actelion Java MolfileCreator 2.0

  0  0  0  0  0  0              0 V3000
M  V30 BEGIN CTAB
M  V30 COUNTS 21 23 0 0 0
M  V30 BEGIN ATOM
M  V30 1 Cl 4.2608 -4.5228 0.0 0
M  V30 2 C 3.6373 -3.741 0.0 0
M  V30 3 C 4.0026 -2.8101 0.0 0
M  V30 4 C 2.6485 -3.89 0.0 0
M  V30 5 C 3.3792 -2.0283 0.0 0
M  V30 6 C 2.025 -3.1082 0.0 0
M  V30 7 C 3.8792 -1.1623 0.0 0
M  V30 8 C 2.3903 -2.1773 0.0 0
M  V30 9 N 3.5138 -0.2314 0.0 0
M  V30 10 C 4.8764 -1.237 0.0 0
M  V30 11 N 1.6573 -1.4972 0.0 0
M  V30 12 O 4.194 0.5016 0.0 0
M  V30 13 C 2.5582 0.0633 0.0 0
M  V30 14 C 5.3102 -2.138 0.0 0
M  V30 15 C 5.4397 -0.4108 0.0 0
M  V30 16 C 1.732 -0.5 0.0 0
M  V30 17 C 6.3074 -2.2127 0.0 0
M  V30 18 C 6.4369 -0.4855 0.0 0
M  V30 19 N 0.866 0.0 0.0 0
M  V30 20 C 6.8708 -1.3864 0.0 0
M  V30 21 C 0.0 -0.5 0.0 0
M  V30 END ATOM
M  V30 BEGIN BOND
M  V30 1 1 1 2
M  V30 2 2 2 3
M  V30 3 1 2 4
M  V30 4 1 3 5
M  V30 5 2 4 6
M  V30 6 2 5 7
M  V30 7 1 5 8
M  V30 8 1 7 9
M  V30 9 1 7 10
M  V30 10 2 8 11
M  V30 11 1 9 12
M  V30 12 1 9 13
M  V30 13 2 10 14
M  V30 14 1 10 15
M  V30 15 1 11 16
M  V30 16 1 14 17
M  V30 17 2 15 18
M  V30 18 2 16 19
M  V30 19 2 17 20
M  V30 20 1 19 21
M  V30 21 1 6 8
M  V30 22 1 13 16
M  V30 23 1 18 20
M  V30 END BOND
M  V30 END CTAB
M  END
>  <Molecule Name>


>  <status>
-

>  <cas>
58-25-3

>  <name>
CHLORDIAZEPOXIDE

>  <ID>
282

>  <Smiles>
C/N=C(/C1)\N=C(C=CC(Cl)=C2)C2=C(c2ccccc2)N1O

$$$$

Actelion Java MolfileCreator 2.0

  0  0  0  0  0  0              0 V3000
M  V30 BEGIN CTAB
M  V30 COUNTS 20 21 0 0 0
M  V30 BEGIN ATOM
M  V30 1 Cl 5.1961 -6.75 0.0 0
M  V30 2 C 5.1961 -5.25 0.0 0
M  V30 3 C 6.4952 -4.5 0.0 0
M  V30 4 C 3.8971 -4.5 0.0 0
M  V30 5 S 7.7942 -5.25 0.0 0
M  V30 6 C 6.4952 -3.0 0.0 0
M  V30 7 C 3.8971 -3.0 0.0 0
M  V30 8 O 7.0442 -6.549 0.0 0
M  V30 9 O 8.5442 -3.9509 0.0 0
M  V30 10 N 9.0932 -6.0 0.0 0
M  V30 11 C 5.1961 -2.25 0.0 0
M  V30 12 N 2.598 -2.25 0.0 0
M  V30 13 S 5.1961 -0.75 0.0 0
M  V30 14 C 2.598 -0.75 0.0 0 CFG=1
M  V30 15 O 6.6961 -0.75 0.0 0
M  V30 16 O 5.9461 0.549 0.0 0
M  V30 17 N 3.8971 0.0 0.0 0
M  V30 18 C 1.299 0.0 0.0 0
M  V30 19 Cl 1.299 1.5 0.0 0
M  V30 20 Cl 0.0 -0.75 0.0 0
M  V30 END ATOM
M  V30 BEGIN BOND
M  V30 1 1 1 2
M  V30 2 2 2 3
M  V30 3 1 2 4
M  V30 4 1 3 5
M  V30 5 1 3 6
M  V30 6 2 4 7
M  V30 7 2 5 8
M  V30 8 2 5 9
M  V30 9 1 5 10
M  V30 10 2 6 11
M  V30 11 1 7 12
M  V30 12 1 11 13
M  V30 13 1 14 12
M  V30 14 2 13 15
M  V30 15 2 13 16
M  V30 16 1 13 17
M  V30 17 1 14 18 CFG=3
M  V30 18 1 18 19
M  V30 19 1 18 20
M  V30 20 1 7 11
M  V30 21 1 14 17
M  V30 END BOND
M  V30 BEGIN COLLECTION
M  V30 MDLV30/STERAC1 ATOMS=(1 14)
M  V30 END COLLECTION
M  V30 END CTAB
M  END
>  <Molecule Name>


>  <status>
DISCONTINUED

>  <cas>
133-67-5

>  <name>
TRICHLORMETHIAZIDE

>  <ID>
283

>  <Smiles>
NS(c(cc(c(NC(C(Cl)Cl)N1)c2)S1(=O)=O)c2Cl)(=O)=O

$$$$

Actelion Java MolfileCreator 2.0

  0  0  0  0  0  0              0 V3000
M  V30 BEGIN CTAB
M  V30 COUNTS 22 24 0 0 0
M  V30 BEGIN ATOM
M  V30 1 Cl 3.4641 1.4999 0.0 0
M  V30 2 C 2.598 0.9999 0.0 0
M  V30 3 C 1.732 1.4999 0.0 0
M  V30 4 C 2.598 0.0 0.0 0
M  V30 5 S 1.732 2.4999 0.0 0
M  V30 6 C 0.866 0.9999 0.0 0
M  V30 7 C 1.732 -0.5 0.0 0
M  V30 8 O 2.732 2.4999 0.0 0
M  V30 9 O 0.732 2.5 0.0 0
M  V30 10 N 1.732 3.4999 0.0 0
M  V30 11 C 0.866 0.0 0.0 0
M  V30 12 C 0.0 -0.5 0.0 0 CFG=2
M  V30 13 O 0.8386 -1.0446 0.0 0
M  V30 14 N -0.9135 -0.0932 0.0 0
M  V30 15 C -0.1045 -1.4945 0.0 0
M  V30 16 C -1.5826 -0.8364 0.0 0
M  V30 17 C -1.0826 -1.7024 0.0 0
M  V30 18 C 0.5646 -2.2376 0.0 0
M  V30 19 O -2.5771 -0.7318 0.0 0
M  V30 20 C -1.3916 -2.6534 0.0 0
M  V30 21 C 0.2555 -3.1887 0.0 0
M  V30 22 C -0.7225 -3.3966 0.0 0
M  V30 END ATOM
M  V30 BEGIN BOND
M  V30 1 1 1 2
M  V30 2 2 2 3
M  V30 3 1 2 4
M  V30 4 1 3 5
M  V30 5 1 3 6
M  V30 6 2 4 7
M  V30 7 2 5 8
M  V30 8 2 5 9
M  V30 9 1 5 10
M  V30 10 2 6 11
M  V30 11 1 12 11
M  V30 12 1 12 13 CFG=3
M  V30 13 1 12 14
M  V30 14 1 12 15
M  V30 15 1 14 16
M  V30 16 2 15 17
M  V30 17 1 15 18
M  V30 18 2 16 19
M  V30 19 1 17 20
M  V30 20 2 18 21
M  V30 21 2 20 22
M  V30 22 1 7 11
M  V30 23 1 16 17
M  V30 24 1 21 22
M  V30 END BOND
M  V30 BEGIN COLLECTION
M  V30 MDLV30/STERAC1 ATOMS=(1 12)
M  V30 END COLLECTION
M  V30 END CTAB
M  END
>  <Molecule Name>


>  <status>
-

>  <cas>
77-36-1

>  <name>
CHLORTHALIDONE

>  <ID>
284

>  <Smiles>
NS(c(cc(C(c1c2cccc1)(NC2=O)O)cc1)c1Cl)(=O)=O

$$$$
_c001
Actelion Java MolfileCreator 2.0

  0  0  0  0  0  0              0 V3000
M  V30 BEGIN CTAB
M  V30 COUNTS 69 71 0 0 0
M  V30 BEGIN ATOM
M  V30 1 S 13.0914 5.7648 0.0 0
M  V30 2 S 12.7776 4.2884 0.0 0
M  V30 3 C 11.9697 6.7747 0.0 0
M  V30 4 C 13.8993 3.2784 0.0 0
M  V30 5 C 10.5342 6.3083 0.0 0 CFG=2
M  V30 6 C 13.8129 2.0283 0.0 0 CFG=2
M  V30 7 N 9.4125 7.3183 0.0 0
M  V30 8 C 10.2506 4.8666 0.0 0
M  V30 9 N 14.9778 0.5793 0.0 0
M  V30 10 C 12.2853 1.4725 0.0 0
M  V30 11 O 11.6378 3.783 0.0 0
M  V30 12 N 8.7849 4.3655 0.0 0
M  V30 13 C 14.4881 -0.8608 0.0 0
M  V30 14 O 11.9705 -0.0538 0.0 0
M  V30 15 N 11.1541 2.592 0.0 0
M  V30 16 C 8.4237 2.8574 0.0 0 CFG=2
M  V30 17 O 12.8195 -1.0072 0.0 0
M  V30 18 C 15.515 -1.6942 0.0 0 CFG=1
M  V30 19 C 9.5721 2.201 0.0 0 CFG=2
M  V30 20 C 11.0263 3.6308 0.0 0
M  V30 21 C 9.744 1.6426 0.0 0
M  V30 22 C 7.0356 2.4227 0.0 0
M  V30 23 N 15.2012 -3.1706 0.0 0
M  V30 24 C 16.9505 -1.2278 0.0 0
M  V30 25 C 8.8515 0.6839 0.0 0
M  V30 26 C 8.9224 3.3743 0.0 0
M  V30 27 C 9.785 4.3323 0.0 0
M  V30 28 O 10.9884 2.1563 0.0 0
M  V30 29 N 9.4526 0.3896 0.0 0
M  V30 30 C 5.9139 3.4326 0.0 0
M  V30 31 C 13.7657 -3.6371 0.0 0
M  V30 32 C 18.0722 -2.2378 0.0 0
M  V30 33 O 9.7215 -0.6135 0.0 0
M  V30 34 N 7.4368 0.4951 0.0 0
M  V30 35 C 10.4384 -0.6068 0.0 0 CFG=2
M  V30 36 C 4.4784 2.9662 0.0 0
M  V30 37 C 6.2277 4.909 0.0 0
M  V30 38 O 13.4519 -5.1135 0.0 0
M  V30 39 C 12.644 -2.6271 0.0 0 CFG=1
M  V30 40 O 17.7584 -3.7142 0.0 0
M  V30 41 N 19.5077 -1.7714 0.0 0
M  V30 42 C 6.8229 -0.8837 0.0 0 CFG=2
M  V30 43 C 10.0868 -2.0835 0.0 0
M  V30 44 C 11.5865 -0.3022 0.0 0 CFG=2
M  V30 45 C 3.3567 3.9762 0.0 0
M  V30 46 C 5.106 5.919 0.0 0
M  V30 47 N 11.2085 -3.0935 0.0 0
M  V30 48 C 12.8907 -1.4203 0.0 0
M  V30 49 C 5.3218 -1.0415 0.0 0
M  V30 50 C 7.7101 -2.1048 0.0 0
M  V30 51 O 8.6513 -2.55 0.0 0
M  V30 52 C 11.8901 1.0727 0.0 0
M  V30 53 C 13.0615 -1.0794 0.0 0
M  V30 54 C 3.6705 5.4526 0.0 0
M  V30 55 C 14.2812 -0.3438 0.0 0
M  V30 56 O 4.4346 0.1795 0.0 0
M  V30 57 N 4.7079 -2.4204 0.0 0
M  V30 58 C 7.0962 -3.4837 0.0 0
M  V30 59 C 10.9149 2.2178 0.0 0
M  V30 60 O 2.5488 6.4626 0.0 0
M  V30 61 C 14.5051 0.7172 0.0 0
M  V30 62 C 3.2068 -2.5781 0.0 0
M  V30 63 C 5.5951 -3.6415 0.0 0
M  V30 64 C 7.9834 -4.7048 0.0 0
M  V30 65 O 13.3364 1.8922 0.0 0
M  V30 66 N 16.1426 1.2585 0.0 0
M  V30 67 C 2.5928 -3.957 0.0 0
M  V30 68 O 3.48 -5.1781 0.0 0
M  V30 69 N 1.0917 -4.1148 0.0 0
M  V30 END ATOM
M  V30 BEGIN BOND
M  V30 1 1 1 2
M  V30 2 1 1 3
M  V30 3 1 2 4
M  V30 4 1 5 3
M  V30 5 1 6 4
M  V30 6 1 5 7 CFG=1
M  V30 7 1 5 8
M  V30 8 1 6 9
M  V30 9 1 6 10 CFG=3
M  V30 10 2 8 11
M  V30 11 1 8 12
M  V30 12 1 9 13
M  V30 13 2 10 14
M  V30 14 1 10 15
M  V30 15 1 16 12
M  V30 16 2 13 17
M  V30 17 1 18 13
M  V30 18 1 19 15
M  V30 19 1 15 20
M  V30 20 1 16 21
M  V30 21 1 16 22 CFG=3
M  V30 22 1 18 23
M  V30 23 1 18 24 CFG=3
M  V30 24 1 19 25 CFG=3
M  V30 25 1 19 26
M  V30 26 1 20 27
M  V30 27 2 21 28
M  V30 28 1 21 29
M  V30 29 1 22 30
M  V30 30 1 23 31
M  V30 31 1 24 32
M  V30 32 2 25 33
M  V30 33 1 25 34
M  V30 34 1 35 29 CFG=1
M  V30 35 2 30 36
M  V30 36 1 30 37
M  V30 37 2 31 38
M  V30 38 1 39 31
M  V30 39 2 32 40
M  V30 40 1 32 41
M  V30 41 1 42 34 CFG=1
M  V30 42 1 35 43
M  V30 43 1 44 35
M  V30 44 1 36 45
M  V30 45 2 37 46
M  V30 46 1 39 47
M  V30 47 1 39 48 CFG=1
M  V30 48 1 42 49
M  V30 49 1 42 50
M  V30 50 2 43 51
M  V30 51 1 44 52
M  V30 52 1 44 53 CFG=3
M  V30 53 2 45 54
M  V30 54 1 48 55
M  V30 55 2 49 56
M  V30 56 1 49 57
M  V30 57 1 50 58
M  V30 58 1 52 59
M  V30 59 1 54 60
M  V30 60 1 55 61
M  V30 61 1 57 62
M  V30 62 1 58 63
M  V30 63 1 58 64
M  V30 64 2 61 65
M  V30 65 1 61 66
M  V30 66 1 62 67
M  V30 67 2 67 68
M  V30 68 1 67 69
M  V30 69 1 26 27
M  V30 70 1 43 47
M  V30 71 1 46 54
M  V30 END BOND
M  V30 BEGIN COLLECTION
M  V30 MDLV30/STERAC1 ATOMS=(9 5 6 16 18 19 35 39 42 44)
M  V30 END COLLECTION
M  V30 END CTAB
M  END
>  <Molecule Name>
_c001

>  <status>
-

>  <cas>
50-56-6

>  <name>
OXYTOCIN

>  <ID>
285

>  <Smiles>
CC[C@H](C)[C@@H](C(N[C@@H](CCC(N)=O)C(N[C@@H](CC(N)=O)C(N[C@@H](CSSC[C@@H](C(N[C@H]1Cc(cc2)ccc2O)=O)N)C(N(CCC2)[C@@H]2C(N[C@@H](CC(C)C)C(NCC(N)=O)=O)=O)=O)=O)=O)=O)NC1=O

$$$$

Actelion Java MolfileCreator 2.0

  0  0  0  0  0  0              0 V3000
M  V30 BEGIN CTAB
M  V30 COUNTS 24 25 0 0 0
M  V30 BEGIN ATOM
M  V30 1 I 4.3301 -2.9999 0.0 0
M  V30 2 C 4.3301 -1.9999 0.0 0
M  V30 3 C 5.1961 -1.5 0.0 0
M  V30 4 C 3.4641 -1.5 0.0 0
M  V30 5 O 6.0621 -2.0 0.0 0
M  V30 6 C 5.1961 -0.5 0.0 0
M  V30 7 C 3.4641 -0.5 0.0 0
M  V30 8 C 6.9282 -1.5 0.0 0
M  V30 9 I 6.0621 0.0 0.0 0
M  V30 10 C 4.3301 0.0 0.0 0
M  V30 11 C 2.598 0.0 0.0 0
M  V30 12 C 7.7942 -2.0 0.0 0
M  V30 13 C 6.9282 -0.5 0.0 0
M  V30 14 C 1.732 -0.5 0.0 0 CFG=2
M  V30 15 C 8.6602 -1.5 0.0 0
M  V30 16 C 7.7942 0.0 0.0 0
M  V30 17 N 1.732 -1.5 0.0 0
M  V30 18 C 0.866 0.0 0.0 0
M  V30 19 I 9.5262 -2.0 0.0 0
M  V30 20 C 8.6602 -0.5 0.0 0
M  V30 21 I 7.7942 0.9999 0.0 0
M  V30 22 O 0.866 1.0 0.0 0
M  V30 23 O 0.0 -0.5 0.0 0 CHG=-1
M  V30 24 O 9.5262 0.0 0.0 0
M  V30 END ATOM
M  V30 BEGIN BOND
M  V30 1 1 1 2
M  V30 2 2 2 3
M  V30 3 1 2 4
M  V30 4 1 3 5
M  V30 5 1 3 6
M  V30 6 2 4 7
M  V30 7 1 5 8
M  V30 8 1 6 9
M  V30 9 2 6 10
M  V30 10 1 7 11
M  V30 11 2 8 12
M  V30 12 1 8 13
M  V30 13 1 14 11
M  V30 14 1 12 15
M  V30 15 2 13 16
M  V30 16 1 14 17 CFG=3
M  V30 17 1 14 18
M  V30 18 1 15 19
M  V30 19 2 15 20
M  V30 20 1 16 21
M  V30 21 2 18 22
M  V30 22 1 18 23
M  V30 23 1 20 24
M  V30 24 1 7 10
M  V30 25 1 16 20
M  V30 END BOND
M  V30 BEGIN COLLECTION
M  V30 MDLV30/STERAC1 ATOMS=(1 14)
M  V30 END COLLECTION
M  V30 END CTAB
M  END
>  <Molecule Name>


>  <status>
DISCONTINUED

>  <cas>
51-49-0

>  <name>
DEXTROTHYROXINE

>  <ID>
286

>  <Smiles>
NC(Cc(cc1I)cc(I)c1Oc(cc1I)cc(I)c1O)C([O-])=O

$$$$

Actelion Java MolfileCreator 2.0

  0  0  0  0  0  0              0 V3000
M  V30 BEGIN CTAB
M  V30 COUNTS 17 17 0 0 0
M  V30 BEGIN ATOM
M  V30 1 O 6.9282 -0.5 0.0 0
M  V30 2 C 6.0621 0.0 0.0 0
M  V30 3 C 6.0621 0.9999 0.0 0
M  V30 4 C 5.1961 -0.5 0.0 0
M  V30 5 O 6.9282 1.4999 0.0 0
M  V30 6 C 5.1961 1.4999 0.0 0
M  V30 7 C 4.3301 0.0 0.0 0
M  V30 8 C 4.3301 1.0 0.0 0
M  V30 9 C 3.4641 -0.5 0.0 0 CFG=1
M  V30 10 O 3.4641 -1.5 0.0 0
M  V30 11 C 2.598 0.0 0.0 0 CFG=2
M  V30 12 N 1.732 -0.5 0.0 0
M  V30 13 C 2.598 1.0 0.0 0
M  V30 14 C 0.866 0.0 0.0 0
M  V30 15 C 1.732 1.5 0.0 0
M  V30 16 C 0.866 1.0 0.0 0
M  V30 17 C 0.0 -0.5 0.0 0
M  V30 END ATOM
M  V30 BEGIN BOND
M  V30 1 1 1 2
M  V30 2 2 2 3
M  V30 3 1 2 4
M  V30 4 1 3 5
M  V30 5 1 3 6
M  V30 6 2 4 7
M  V30 7 2 6 8
M  V30 8 1 9 7
M  V30 9 1 9 10 CFG=1
M  V30 10 1 11 9
M  V30 11 1 11 12 CFG=3
M  V30 12 1 11 13
M  V30 13 1 12 14
M  V30 14 1 13 15
M  V30 15 1 14 16
M  V30 16 1 14 17
M  V30 17 1 7 8
M  V30 END BOND
M  V30 BEGIN COLLECTION
M  V30 MDLV30/STERAC1 ATOMS=(2 9 11)
M  V30 END COLLECTION
M  V30 END CTAB
M  END
>  <Molecule Name>


>  <status>
DISCONTINUED

>  <cas>
788763-51-9

>  <name>
ISOETHARINE

>  <ID>
287

>  <Smiles>
CC[C@H]([C@@H](c(cc1)cc(O)c1O)O)NC(C)C

$$$$
_c001
Actelion Java MolfileCreator 2.0

  0  0  0  0  0  0              0 V3000
M  V30 BEGIN CTAB
M  V30 COUNTS 10 11 0 0 0
M  V30 BEGIN ATOM
M  V30 1 N 1.299 0.0 0.0 0
M  V30 2 C 0.0 -0.75 0.0 0 CFG=2
M  V30 3 C -1.5 -0.7499 0.0 0 CFG=2
M  V30 4 C -0.75 -2.049 0.0 0
M  V30 5 C -2.799 0.0 0.0 0
M  V30 6 C -2.799 1.5 0.0 0
M  V30 7 C -4.098 -0.7499 0.0 0
M  V30 8 C -4.098 2.25 0.0 0
M  V30 9 C -5.3971 0.0 0.0 0
M  V30 10 C -5.3971 1.5 0.0 0
M  V30 END ATOM
M  V30 BEGIN BOND
M  V30 1 1 2 1 CFG=1
M  V30 2 1 3 2
M  V30 3 1 2 4
M  V30 4 1 3 5 CFG=3
M  V30 5 2 5 6
M  V30 6 1 5 7
M  V30 7 1 6 8
M  V30 8 2 7 9
M  V30 9 2 8 10
M  V30 10 1 3 4
M  V30 11 1 9 10
M  V30 END BOND
M  V30 BEGIN COLLECTION
M  V30 MDLV30/STERAC1 ATOMS=(2 2 3)
M  V30 END COLLECTION
M  V30 END CTAB
M  END
>  <Molecule Name>
_c001

>  <status>
-

>  <cas>
155-09-9

>  <name>
TRANYLCYPROMINE

>  <ID>
288

>  <Smiles>
N[C@@H](C1)[C@H]1c1ccccc1

$$$$

Actelion Java MolfileCreator 2.0

  0  0  0  0  0  0              0 V3000
M  V30 BEGIN CTAB
M  V30 COUNTS 10 10 0 0 0
M  V30 BEGIN ATOM
M  V30 1 O -1.1214 0.8848 0.0 0
M  V30 2 C -0.9135 -0.0932 0.0 0
M  V30 3 N -1.5826 -0.8364 0.0 0
M  V30 4 C 0.0 -0.5 0.0 0 CFG=2
M  V30 5 C -1.0826 -1.7024 0.0 0
M  V30 6 C -0.1045 -1.4945 0.0 0
M  V30 7 C 0.866 0.0 0.0 0
M  V30 8 C 0.8386 -1.0446 0.0 0
M  V30 9 O -1.4894 -2.6159 0.0 0
M  V30 10 C 1.732 -0.5 0.0 0
M  V30 END ATOM
M  V30 BEGIN BOND
M  V30 1 2 1 2
M  V30 2 1 2 3
M  V30 3 1 4 2
M  V30 4 1 3 5
M  V30 5 1 4 6
M  V30 6 1 4 7
M  V30 7 1 4 8 CFG=3
M  V30 8 2 5 9
M  V30 9 1 7 10
M  V30 10 1 5 6
M  V30 END BOND
M  V30 BEGIN COLLECTION
M  V30 MDLV30/STERAC1 ATOMS=(1 4)
M  V30 END COLLECTION
M  V30 END CTAB
M  END
>  <Molecule Name>


>  <status>
-

>  <cas>
77-67-8

>  <name>
ETHOSUXIMIDE

>  <ID>
289

>  <Smiles>
CCC(C)(CC(N1)=O)C1=O

$$$$

Actelion Java MolfileCreator 2.0

  0  0  0  0  0  0              0 V3000
M  V30 BEGIN CTAB
M  V30 COUNTS 24 26 0 0 0
M  V30 BEGIN ATOM
M  V30 1 S 7.7942 -2.2499 0.0 0
M  V30 2 C 7.7942 -0.75 0.0 0
M  V30 3 C 6.4951 -2.9999 0.0 0
M  V30 4 C 6.4951 0.0 0.0 0
M  V30 5 C 9.0932 0.0 0.0 0
M  V30 6 C 5.1961 -2.25 0.0 0
M  V30 7 C 6.4951 -4.5 0.0 0
M  V30 8 N 5.1961 -0.75 0.0 0
M  V30 9 C 6.4951 1.5 0.0 0
M  V30 10 C 9.0932 1.5 0.0 0
M  V30 11 C 3.8971 -3.0 0.0 0
M  V30 12 C 5.1961 -5.25 0.0 0
M  V30 13 C 3.8971 0.0 0.0 0
M  V30 14 C 7.7942 2.25 0.0 0
M  V30 15 C 3.8971 -4.5 0.0 0
M  V30 16 C 2.598 -0.75 0.0 0 CFG=1
M  V30 17 C 7.7942 3.75 0.0 0
M  V30 18 N 1.299 0.0 0.0 0
M  V30 19 C 2.598 -2.25 0.0 0
M  V30 20 O 6.4951 4.4999 0.0 0
M  V30 21 C 9.0932 4.5 0.0 0
M  V30 22 C 1.299 1.5 0.0 0
M  V30 23 C 0.0 -0.75 0.0 0
M  V30 24 C 9.0932 6.0 0.0 0
M  V30 END ATOM
M  V30 BEGIN BOND
M  V30 1 1 1 2
M  V30 2 1 1 3
M  V30 3 2 2 4
M  V30 4 1 2 5
M  V30 5 2 3 6
M  V30 6 1 3 7
M  V30 7 1 4 8
M  V30 8 1 4 9
M  V30 9 2 5 10
M  V30 10 1 6 11
M  V30 11 2 7 12
M  V30 12 1 8 13
M  V30 13 2 9 14
M  V30 14 2 11 15
M  V30 15 1 16 13
M  V30 16 1 14 17
M  V30 17 1 16 18 CFG=3
M  V30 18 1 16 19
M  V30 19 2 17 20
M  V30 20 1 17 21
M  V30 21 1 18 22
M  V30 22 1 18 23
M  V30 23 1 21 24
M  V30 24 1 6 8
M  V30 25 1 10 14
M  V30 26 1 12 15
M  V30 END BOND
M  V30 BEGIN COLLECTION
M  V30 MDLV30/STERAC1 ATOMS=(1 16)
M  V30 END COLLECTION
M  V30 END CTAB
M  END
>  <Molecule Name>


>  <status>
DISCONTINUED

>  <cas>
362-29-8

>  <name>
PROPIOMAZINE

>  <ID>
290

>  <Smiles>
CCC(c(cc1)cc2c1Sc(cccc1)c1N2CC(C)N(C)C)=O

$$$$

Actelion Java MolfileCreator 2.0

  0  0  0  0  0  0              0 V3000
M  V30 BEGIN CTAB
M  V30 COUNTS 29 31 0 0 0
M  V30 BEGIN ATOM
M  V30 1 O 2.9956 -3.1864 0.0 0
M  V30 2 C 3.5589 -2.3602 0.0 0
M  V30 3 C 4.5478 -2.5092 0.0 0
M  V30 4 C 3.0589 -1.4941 0.0 0
M  V30 5 O 4.8425 -3.4648 0.0 0
M  V30 6 C 5.2808 -1.829 0.0 0
M  V30 7 C 3.4243 -0.5633 0.0 0
M  V30 8 C 5.8174 -3.6873 0.0 0
M  V30 9 C 5.2061 -0.8318 0.0 0
M  V30 10 C 4.3798 -0.2685 0.0 0
M  V30 11 C 2.598 0.0 0.0 0 CFG=1
M  V30 12 C 4.7452 0.6623 0.0 0
M  V30 13 N 1.732 -0.5 0.0 0
M  V30 14 C 2.5233 0.9972 0.0 0
M  V30 15 C 5.7452 0.6623 0.0 0
M  V30 16 C 4.2452 1.5283 0.0 0
M  V30 17 C 0.866 0.0 0.0 0
M  V30 18 C 3.2563 1.6773 0.0 0
M  V30 19 O 6.2452 -0.2037 0.0 0
M  V30 20 C 6.2452 1.5283 0.0 0
M  V30 21 C 4.7452 2.3943 0.0 0
M  V30 22 O 0.866 1.0 0.0 0
M  V30 23 C 0.0 -0.5 0.0 0
M  V30 24 C 7.2452 -0.2037 0.0 0
M  V30 25 O 7.2452 1.5283 0.0 0
M  V30 26 C 5.7452 2.3943 0.0 0
M  V30 27 C 7.7452 2.3943 0.0 0
M  V30 28 O 6.2452 3.2603 0.0 0
M  V30 29 C 5.7452 4.1264 0.0 0
M  V30 END ATOM
M  V30 BEGIN BOND
M  V30 1 2 1 2
M  V30 2 1 2 3
M  V30 3 1 2 4
M  V30 4 1 3 5
M  V30 5 2 3 6
M  V30 6 2 4 7
M  V30 7 1 5 8
M  V30 8 1 6 9
M  V30 9 1 7 10
M  V30 10 1 11 7
M  V30 11 1 10 12
M  V30 12 1 11 13 CFG=1
M  V30 13 1 11 14
M  V30 14 2 12 15
M  V30 15 1 12 16
M  V30 16 1 13 17
M  V30 17 1 14 18
M  V30 18 1 15 19
M  V30 19 1 15 20
M  V30 20 2 16 21
M  V30 21 2 17 22
M  V30 22 1 17 23
M  V30 23 1 19 24
M  V30 24 1 20 25
M  V30 25 2 20 26
M  V30 26 1 25 27
M  V30 27 1 26 28
M  V30 28 1 28 29
M  V30 29 2 9 10
M  V30 30 1 16 18
M  V30 31 1 21 26
M  V30 END BOND
M  V30 BEGIN COLLECTION
M  V30 MDLV30/STERAC1 ATOMS=(1 11)
M  V30 END COLLECTION
M  V30 END CTAB
M  END
>  <Molecule Name>


>  <status>
-

>  <cas>
64-86-8

>  <name>
COLCHICINE

>  <ID>
291

>  <Smiles>
CC(NC(CCc(c(C1=CC=C2OC)c3OC)cc(OC)c3OC)C1=CC2=O)=O

$$$$

Actelion Java MolfileCreator 2.0

  0  0  0  0  0  0              0 V3000
M  V30 BEGIN CTAB
M  V30 COUNTS 12 12 0 0 0
M  V30 BEGIN ATOM
M  V30 1 O 3.4641 -0.5 0.0 0
M  V30 2 C 2.598 0.0 0.0 0 CFG=2
M  V30 3 C 2.598 1.0 0.0 0
M  V30 4 C 1.732 -0.5 0.0 0 CFG=2
M  V30 5 C 3.4641 1.5 0.0 0
M  V30 6 C 1.732 1.4999 0.0 0
M  V30 7 N 0.866 0.0 0.0 0
M  V30 8 C 1.732 -1.5 0.0 0
M  V30 9 C 3.4641 2.5 0.0 0
M  V30 10 C 1.732 2.5 0.0 0
M  V30 11 C 0.0 -0.5 0.0 0
M  V30 12 C 2.598 3.0 0.0 0
M  V30 END ATOM
M  V30 BEGIN BOND
M  V30 1 1 2 1 CFG=1
M  V30 2 1 2 3
M  V30 3 1 4 2
M  V30 4 2 3 5
M  V30 5 1 3 6
M  V30 6 1 4 7 CFG=1
M  V30 7 1 4 8
M  V30 8 1 5 9
M  V30 9 2 6 10
M  V30 10 1 7 11
M  V30 11 2 9 12
M  V30 12 1 10 12
M  V30 END BOND
M  V30 BEGIN COLLECTION
M  V30 MDLV30/STERAC1 ATOMS=(2 2 4)
M  V30 END COLLECTION
M  V30 END CTAB
M  END
>  <Molecule Name>


>  <status>
-

>  <cas>
90-82-4

>  <name>
PSEUDOEPHEDRINE

>  <ID>
292

>  <Smiles>
C[C@H]([C@@H](c1ccccc1)O)NC

$$$$

Actelion Java MolfileCreator 2.0

  0  0  0  0  0  0              0 V3000
M  V30 BEGIN CTAB
M  V30 COUNTS 21 23 0 0 0
M  V30 BEGIN ATOM
M  V30 1 O 2.598 1.0 0.0 0
M  V30 2 C 2.598 0.0 0.0 0
M  V30 3 O 3.4641 -0.5 0.0 0
M  V30 4 C 1.732 -0.5 0.0 0 CFG=1
M  V30 5 C 4.2816 -0.028 0.0 0 CFG=2
M  V30 6 C 1.732 -1.5 0.0 0
M  V30 7 C 0.866 0.0 0.0 0
M  V30 8 C 4.3301 0.9999 0.0 0
M  V30 9 C 5.1961 -0.4999 0.0 0
M  V30 10 C 0.866 -1.9999 0.0 0
M  V30 11 C 2.598 -2.0 0.0 0
M  V30 12 O 0.0 -0.5 0.0 0
M  V30 13 C 5.5386 1.6319 0.0 0 CFG=1
M  V30 14 C 6.3476 0.2306 0.0 0 CFG=2
M  V30 15 C 0.866 -2.9999 0.0 0
M  V30 16 C 2.598 -3.0 0.0 0
M  V30 17 N 5.4341 0.6374 0.0 0
M  V30 18 C 6.5168 1.8398 0.0 0
M  V30 19 C 7.0168 0.9738 0.0 0
M  V30 20 C 1.732 -3.5 0.0 0
M  V30 21 C 4.6661 0.1939 0.0 0
M  V30 END ATOM
M  V30 BEGIN BOND
M  V30 1 2 1 2
M  V30 2 1 2 3
M  V30 3 1 4 2
M  V30 4 1 5 3 CFG=3
M  V30 5 1 4 6
M  V30 6 1 4 7 CFG=1
M  V30 7 1 5 8
M  V30 8 1 5 9
M  V30 9 2 6 10
M  V30 10 1 6 11
M  V30 11 1 7 12
M  V30 12 1 13 8
M  V30 13 1 14 9
M  V30 14 1 10 15
M  V30 15 2 11 16
M  V30 16 1 13 17 CFG=1
M  V30 17 1 13 18
M  V30 18 1 14 19
M  V30 19 2 15 20
M  V30 20 1 17 21
M  V30 21 1 14 17 CFG=1
M  V30 22 1 16 20
M  V30 23 1 18 19
M  V30 END BOND
M  V30 BEGIN COLLECTION
M  V30 MDLV30/STEABS ATOMS=(3 5 13 14)
M  V30 MDLV30/STERAC1 ATOMS=(1 4)
M  V30 END COLLECTION
M  V30 END CTAB
M  END
>  <Molecule Name>


>  <status>
-

>  <cas>
51-55-8

>  <name>
ATROPINE

>  <ID>
293

>  <Smiles>
CN([C@H](CC1)C2)[C@@H]1C[C@H]2OC(C(CO)c1ccccc1)=O

$$$$

Actelion Java MolfileCreator 2.0

  0  0  0  0  0  0              0 V3000
M  V30 BEGIN CTAB
M  V30 COUNTS 18 19 0 0 0
M  V30 BEGIN ATOM
M  V30 1 N 2.598 0.0 0.0 0
M  V30 2 C 1.732 -0.5 0.0 0 CFG=2
M  V30 3 C 3.4641 -0.5 0.0 0
M  V30 4 C 2.598 1.0 0.0 0
M  V30 5 C 0.866 0.0 0.0 0
M  V30 6 C 1.732 -1.5 0.0 0
M  V30 7 C 4.3301 0.0 0.0 0
M  V30 8 C 0.0 -0.5 0.0 0
M  V30 9 C 5.1961 -0.4999 0.0 0
M  V30 10 C 4.3301 0.9999 0.0 0
M  V30 11 C -0.866 0.0 0.0 0
M  V30 12 C 0.0 -1.4999 0.0 0
M  V30 13 C 6.0621 0.0 0.0 0
M  V30 14 C 5.1961 1.4999 0.0 0
M  V30 15 C -1.732 -0.4999 0.0 0
M  V30 16 C -0.866 -1.9999 0.0 0
M  V30 17 C 6.0621 1.0 0.0 0
M  V30 18 C -1.732 -1.4999 0.0 0
M  V30 END ATOM
M  V30 BEGIN BOND
M  V30 1 1 2 1 CFG=1
M  V30 2 1 1 3
M  V30 3 1 1 4
M  V30 4 1 2 5
M  V30 5 1 2 6
M  V30 6 1 3 7
M  V30 7 1 5 8
M  V30 8 2 7 9
M  V30 9 1 7 10
M  V30 10 2 8 11
M  V30 11 1 8 12
M  V30 12 1 9 13
M  V30 13 2 10 14
M  V30 14 1 11 15
M  V30 15 2 12 16
M  V30 16 2 13 17
M  V30 17 2 15 18
M  V30 18 1 14 17
M  V30 19 1 16 18
M  V30 END BOND
M  V30 BEGIN COLLECTION
M  V30 MDLV30/STERAC1 ATOMS=(1 2)
M  V30 END COLLECTION
M  V30 END CTAB
M  END
>  <Molecule Name>


>  <status>
-

>  <cas>
156-08-1

>  <name>
BENZPHETAMINE

>  <ID>
294

>  <Smiles>
CC(Cc1ccccc1)N(C)Cc1ccccc1

$$$$

Actelion Java MolfileCreator 2.0

  0  0  0  0  0  0              0 V3000
M  V30 BEGIN CTAB
M  V30 COUNTS 11 12 0 0 0
M  V30 BEGIN ATOM
M  V30 1 S 1.299 0.0 0.0 0
M  V30 2 C 0.0 -0.75 0.0 0
M  V30 3 N 0.0 -2.25 0.0 0
M  V30 4 C -1.299 0.0 0.0 0
M  V30 5 C -1.299 -2.9999 0.0 0
M  V30 6 N -1.6109 1.4672 0.0 0
M  V30 7 C -2.598 -0.7499 0.0 0
M  V30 8 N -2.598 -2.2499 0.0 0
M  V30 9 N -1.299 -4.5 0.0 0
M  V30 10 C -3.1026 1.624 0.0 0
M  V30 11 N -3.7127 0.2536 0.0 0
M  V30 END ATOM
M  V30 BEGIN BOND
M  V30 1 2 1 2
M  V30 2 1 2 3
M  V30 3 1 2 4
M  V30 4 2 3 5
M  V30 5 1 4 6
M  V30 6 2 4 7
M  V30 7 1 5 8
M  V30 8 1 5 9
M  V30 9 1 6 10
M  V30 10 1 7 11
M  V30 11 1 7 8
M  V30 12 2 10 11
M  V30 END BOND
M  V30 END CTAB
M  END
>  <Molecule Name>


>  <status>
-

>  <cas>
154-42-7

>  <name>
THIOGUANINE

>  <ID>
295

>  <Smiles>
NC(Nc1c2[nH]cn1)=NC2=S

$$$$

Actelion Java MolfileCreator 2.0

  0  0  0  0  0  0              0 V3000
M  V30 BEGIN CTAB
M  V30 COUNTS 21 23 0 0 0
M  V30 BEGIN ATOM
M  V30 1 O 2.598 1.0 0.0 0
M  V30 2 C 2.598 0.0 0.0 0
M  V30 3 O 3.4641 -0.5 0.0 0
M  V30 4 C 1.732 -0.5 0.0 0 CFG=1
M  V30 5 C 4.2816 -0.028 0.0 0 CFG=2
M  V30 6 C 1.732 -1.5 0.0 0
M  V30 7 C 0.866 0.0 0.0 0
M  V30 8 C 4.3301 0.9999 0.0 0
M  V30 9 C 5.1961 -0.4999 0.0 0
M  V30 10 C 0.866 -1.9999 0.0 0
M  V30 11 C 2.598 -2.0 0.0 0
M  V30 12 O 0.0 -0.5 0.0 0
M  V30 13 C 5.5386 1.6319 0.0 0 CFG=1
M  V30 14 C 6.3476 0.2306 0.0 0 CFG=2
M  V30 15 C 0.866 -2.9999 0.0 0
M  V30 16 C 2.598 -3.0 0.0 0
M  V30 17 N 5.4341 0.6374 0.0 0
M  V30 18 C 6.5168 1.8398 0.0 0
M  V30 19 C 7.0168 0.9738 0.0 0
M  V30 20 C 1.732 -3.5 0.0 0
M  V30 21 C 4.6661 0.1939 0.0 0
M  V30 END ATOM
M  V30 BEGIN BOND
M  V30 1 2 1 2
M  V30 2 1 2 3
M  V30 3 1 4 2
M  V30 4 1 5 3 CFG=3
M  V30 5 1 4 6
M  V30 6 1 4 7 CFG=1
M  V30 7 1 5 8
M  V30 8 1 5 9
M  V30 9 2 6 10
M  V30 10 1 6 11
M  V30 11 1 7 12
M  V30 12 1 13 8
M  V30 13 1 14 9
M  V30 14 1 10 15
M  V30 15 2 11 16
M  V30 16 1 13 17 CFG=1
M  V30 17 1 13 18
M  V30 18 1 14 19
M  V30 19 2 15 20
M  V30 20 1 17 21
M  V30 21 1 14 17 CFG=1
M  V30 22 1 16 20
M  V30 23 1 18 19
M  V30 END BOND
M  V30 BEGIN COLLECTION
M  V30 MDLV30/STEABS ATOMS=(3 5 13 14)
M  V30 MDLV30/STERAC1 ATOMS=(1 4)
M  V30 END COLLECTION
M  V30 END CTAB
M  END
>  <Molecule Name>


>  <status>
-

>  <cas>
51-55-8

>  <name>
ATROPINE

>  <ID>
296

>  <Smiles>
CN([C@H](CC1)C2)[C@@H]1C[C@H]2OC(C(CO)c1ccccc1)=O

$$$$

Actelion Java MolfileCreator 2.0

  0  0  0  0  0  0              0 V3000
M  V30 BEGIN CTAB
M  V30 COUNTS 34 37 0 0 0
M  V30 BEGIN ATOM
M  V30 1 O 5.0517 -1.0943 0.0 0
M  V30 2 C 3.9032 0.0 0.0 0
M  V30 3 O 2.6021 -0.7511 0.0 0
M  V30 4 C 3.9032 1.5023 0.0 0
M  V30 5 C 1.301 0.0 0.0 0
M  V30 6 C 5.2042 0.7511 0.0 0
M  V30 7 C 5.2042 2.2535 0.0 0
M  V30 8 C 2.6021 2.2535 0.0 0
M  V30 9 C 0.0 -0.7511 0.0 0
M  V30 10 C 5.3413 -0.6072 0.0 0
M  V30 11 C 6.5053 1.5023 0.0 0
M  V30 12 C 5.2042 3.7558 0.0 0
M  V30 13 C 2.6021 3.7558 0.0 0
M  V30 14 C 6.5053 -1.5023 0.0 0
M  V30 15 C 7.8064 0.7511 0.0 0
M  V30 16 N 3.9032 4.507 0.0 0
M  V30 17 C 7.8064 -0.7511 0.0 0
M  V30 18 C 3.9032 6.0093 0.0 0
M  V30 19 C 5.2042 6.7605 0.0 0
M  V30 20 C 5.2042 8.2629 0.0 0
M  V30 21 C 5.2042 9.7652 0.0 0
M  V30 22 C 3.9032 9.014 0.0 0
M  V30 23 C 6.5053 9.014 0.0 0
M  V30 24 N 5.2042 11.2676 0.0 0
M  V30 25 C 3.9032 10.5164 0.0 0
M  V30 26 C 2.6021 8.2629 0.0 0
M  V30 27 C 7.8064 8.2629 0.0 0
M  V30 28 C 6.5053 10.5164 0.0 0
M  V30 29 C 2.6021 11.2676 0.0 0
M  V30 30 C 1.301 9.014 0.0 0
M  V30 31 C 9.1075 9.014 0.0 0
M  V30 32 C 7.8064 11.2676 0.0 0
M  V30 33 C 1.301 10.5164 0.0 0
M  V30 34 C 9.1075 10.5164 0.0 0
M  V30 END ATOM
M  V30 BEGIN BOND
M  V30 1 2 1 2
M  V30 2 1 2 3
M  V30 3 1 2 4
M  V30 4 1 3 5
M  V30 5 1 4 6
M  V30 6 1 4 7
M  V30 7 1 4 8
M  V30 8 1 5 9
M  V30 9 2 6 10
M  V30 10 1 6 11
M  V30 11 1 7 12
M  V30 12 1 8 13
M  V30 13 1 10 14
M  V30 14 2 11 15
M  V30 15 1 12 16
M  V30 16 2 14 17
M  V30 17 1 16 18
M  V30 18 1 18 19
M  V30 19 1 19 20
M  V30 20 1 20 21
M  V30 21 1 20 22
M  V30 22 1 20 23
M  V30 23 3 21 24
M  V30 24 2 22 25
M  V30 25 1 22 26
M  V30 26 2 23 27
M  V30 27 1 23 28
M  V30 28 1 25 29
M  V30 29 2 26 30
M  V30 30 1 27 31
M  V30 31 2 28 32
M  V30 32 2 29 33
M  V30 33 2 31 34
M  V30 34 1 13 16
M  V30 35 1 15 17
M  V30 36 1 30 33
M  V30 37 1 32 34
M  V30 END BOND
M  V30 END CTAB
M  END
>  <Molecule Name>


>  <status>
-

>  <cas>
915-30-0

>  <name>
DIPHENOXYLATE

>  <ID>
297

>  <Smiles>
CCOC(C1(CCN(CCC(c2ccccc2)(c2ccccc2)C#N)CC1)c1ccccc1)=O

$$$$

Actelion Java MolfileCreator 2.0

  0  0  0  0  0  0              0 V3000
M  V30 BEGIN CTAB
M  V30 COUNTS 14 14 0 0 0
M  V30 BEGIN ATOM
M  V30 1 O 6.0621 1.0 0.0 0
M  V30 2 C 6.0621 0.0 0.0 0
M  V30 3 C 5.1961 -0.5 0.0 0
M  V30 4 C 6.9282 -0.4999 0.0 0
M  V30 5 C 5.1961 -1.4999 0.0 0
M  V30 6 C 4.3301 0.0 0.0 0
M  V30 7 C 6.9282 -1.4999 0.0 0
M  V30 8 C 6.0621 -1.9999 0.0 0
M  V30 9 C 3.4641 -0.5 0.0 0
M  V30 10 O 7.7942 -1.9999 0.0 0
M  V30 11 C 2.598 0.0 0.0 0
M  V30 12 C 1.732 -0.5 0.0 0
M  V30 13 C 0.866 0.0 0.0 0
M  V30 14 C 0.0 -0.5 0.0 0
M  V30 END ATOM
M  V30 BEGIN BOND
M  V30 1 1 1 2
M  V30 2 2 2 3
M  V30 3 1 2 4
M  V30 4 1 3 5
M  V30 5 1 3 6
M  V30 6 2 4 7
M  V30 7 2 5 8
M  V30 8 1 6 9
M  V30 9 1 7 10
M  V30 10 1 9 11
M  V30 11 1 11 12
M  V30 12 1 12 13
M  V30 13 1 13 14
M  V30 14 1 7 8
M  V30 END BOND
M  V30 END CTAB
M  END
>  <Molecule Name>


>  <status>
DISCONTINUED

>  <cas>
7527-91-5

>  <name>
ACRISORCIN

>  <ID>
298

>  <Smiles>
CCCCCCc(ccc(O)c1)c1O

$$$$
_c001
Actelion Java MolfileCreator 2.0

  0  0  0  0  0  0              0 V3000
M  V30 BEGIN CTAB
M  V30 COUNTS 21 23 0 0 0
M  V30 BEGIN ATOM
M  V30 1 Cl 3.8971 4.4999 0.0 0
M  V30 2 C 5.1961 3.75 0.0 0
M  V30 3 C 5.1961 2.2499 0.0 0
M  V30 4 C 6.4951 4.5 0.0 0
M  V30 5 C 6.4951 1.4999 0.0 0
M  V30 6 C 7.7942 3.75 0.0 0
M  V30 7 C 7.7942 2.25 0.0 0
M  V30 8 C 6.4951 0.0 0.0 0
M  V30 9 S 9.0932 1.4999 0.0 0
M  V30 10 C 7.7942 -0.7499 0.0 0
M  V30 11 C 5.1961 -0.75 0.0 0
M  V30 12 C 9.0932 0.0 0.0 0
M  V30 13 C 7.7942 -2.2499 0.0 0
M  V30 14 C 3.8971 0.0 0.0 0
M  V30 15 C 10.3923 -0.7499 0.0 0
M  V30 16 C 9.0932 -2.9999 0.0 0
M  V30 17 C 2.598 -0.75 0.0 0
M  V30 18 C 10.3923 -2.2499 0.0 0
M  V30 19 N 1.299 0.0 0.0 0
M  V30 20 C 1.299 1.5 0.0 0
M  V30 21 C 0.0 -0.75 0.0 0
M  V30 END ATOM
M  V30 BEGIN BOND
M  V30 1 1 1 2
M  V30 2 2 2 3
M  V30 3 1 2 4
M  V30 4 1 3 5
M  V30 5 2 4 6
M  V30 6 2 5 7
M  V30 7 1 5 8
M  V30 8 1 7 9
M  V30 9 1 8 10
M  V30 10 2 8 11
M  V30 11 1 9 12
M  V30 12 1 10 13
M  V30 13 1 11 14
M  V30 14 1 12 15
M  V30 15 2 13 16
M  V30 16 1 14 17
M  V30 17 2 15 18
M  V30 18 1 17 19
M  V30 19 1 19 20
M  V30 20 1 19 21
M  V30 21 1 6 7
M  V30 22 2 10 12
M  V30 23 1 16 18
M  V30 END BOND
M  V30 END CTAB
M  END
>  <Molecule Name>
_c001

>  <status>
DISCONTINUED

>  <cas>
113-59-7

>  <name>
CHLORPROTHIXENE

>  <ID>
299

>  <Smiles>
CN(C)CC/C=C1\c(cc(cc2)Cl)c2Sc2c1cccc2

$$$$

Actelion Java MolfileCreator 2.0

  0  0  0  0  0  0              0 V3000
M  V30 BEGIN CTAB
M  V30 COUNTS 20 21 0 0 0
M  V30 BEGIN ATOM
M  V30 1 Cl 5.1961 -6.75 0.0 0
M  V30 2 C 5.1961 -5.25 0.0 0
M  V30 3 C 6.4952 -4.5 0.0 0
M  V30 4 C 3.8971 -4.5 0.0 0
M  V30 5 S 7.7942 -5.25 0.0 0
M  V30 6 C 6.4952 -3.0 0.0 0
M  V30 7 C 3.8971 -3.0 0.0 0
M  V30 8 O 7.0442 -6.549 0.0 0
M  V30 9 O 8.5442 -3.9509 0.0 0
M  V30 10 N 9.0932 -6.0 0.0 0
M  V30 11 C 5.1961 -2.25 0.0 0
M  V30 12 N 2.598 -2.25 0.0 0
M  V30 13 S 5.1961 -0.75 0.0 0
M  V30 14 C 2.598 -0.75 0.0 0 CFG=1
M  V30 15 O 6.6961 -0.75 0.0 0
M  V30 16 O 5.9461 0.549 0.0 0
M  V30 17 N 3.8971 0.0 0.0 0
M  V30 18 C 1.299 0.0 0.0 0
M  V30 19 C 3.8971 1.5 0.0 0
M  V30 20 Cl 0.0 -0.75 0.0 0
M  V30 END ATOM
M  V30 BEGIN BOND
M  V30 1 1 1 2
M  V30 2 2 2 3
M  V30 3 1 2 4
M  V30 4 1 3 5
M  V30 5 1 3 6
M  V30 6 2 4 7
M  V30 7 2 5 8
M  V30 8 2 5 9
M  V30 9 1 5 10
M  V30 10 2 6 11
M  V30 11 1 7 12
M  V30 12 1 11 13
M  V30 13 1 14 12
M  V30 14 2 13 15
M  V30 15 2 13 16
M  V30 16 1 13 17
M  V30 17 1 14 18 CFG=3
M  V30 18 1 17 19
M  V30 19 1 18 20
M  V30 20 1 7 11
M  V30 21 1 14 17
M  V30 END BOND
M  V30 BEGIN COLLECTION
M  V30 MDLV30/STERAC1 ATOMS=(1 14)
M  V30 END COLLECTION
M  V30 END CTAB
M  END
>  <Molecule Name>


>  <status>
DISCONTINUED

>  <cas>
135-07-9

>  <name>
METHYCLOTHIAZIDE

>  <ID>
300

>  <Smiles>
CN(C(CCl)Nc(c1c2)cc(Cl)c2S(N)(=O)=O)S1(=O)=O

$$$$

Actelion Java MolfileCreator 2.0

  0  0  0  0  0  0              0 V3000
M  V30 BEGIN CTAB
M  V30 COUNTS 24 26 0 0 0
M  V30 BEGIN ATOM
M  V30 1 O 2.8254 -2.1636 0.0 0
M  V30 2 C 3.5686 -1.4945 0.0 0
M  V30 3 N 4.5467 -1.7024 0.0 0
M  V30 4 C 3.4641 -0.5 0.0 0 CFG=2
M  V30 5 N 5.0467 -0.8364 0.0 0
M  V30 6 C 4.9535 -2.6159 0.0 0
M  V30 7 C 4.3776 -0.0932 0.0 0
M  V30 8 C 2.598 0.0 0.0 0
M  V30 9 C 6.0412 -0.7318 0.0 0
M  V30 10 C 4.3657 -3.4249 0.0 0
M  V30 11 C 5.948 -2.7205 0.0 0
M  V30 12 O 4.5855 0.8848 0.0 0
M  V30 13 C 1.732 -0.5 0.0 0
M  V30 14 C 6.629 -1.5408 0.0 0
M  V30 15 C 6.448 0.1816 0.0 0
M  V30 16 C 4.7724 -4.3385 0.0 0
M  V30 17 C 6.3547 -3.634 0.0 0
M  V30 18 C 0.866 0.0 0.0 0
M  V30 19 C 7.6236 -1.4363 0.0 0
M  V30 20 C 7.4425 0.2861 0.0 0
M  V30 21 C 5.7669 -4.443 0.0 0
M  V30 22 C 0.0 -0.5 0.0 0
M  V30 23 C 8.0303 -0.5228 0.0 0
M  V30 24 O 6.1737 -5.3566 0.0 0
M  V30 END ATOM
M  V30 BEGIN BOND
M  V30 1 2 1 2
M  V30 2 1 2 3
M  V30 3 1 4 2
M  V30 4 1 3 5
M  V30 5 1 3 6
M  V30 6 1 4 7
M  V30 7 1 4 8 CFG=1
M  V30 8 1 5 9
M  V30 9 2 6 10
M  V30 10 1 6 11
M  V30 11 2 7 12
M  V30 12 1 8 13
M  V30 13 2 9 14
M  V30 14 1 9 15
M  V30 15 1 10 16
M  V30 16 2 11 17
M  V30 17 1 13 18
M  V30 18 1 14 19
M  V30 19 2 15 20
M  V30 20 2 16 21
M  V30 21 1 18 22
M  V30 22 2 19 23
M  V30 23 1 21 24
M  V30 24 1 5 7
M  V30 25 1 17 21
M  V30 26 1 20 23
M  V30 END BOND
M  V30 BEGIN COLLECTION
M  V30 MDLV30/STERAC1 ATOMS=(1 4)
M  V30 END COLLECTION
M  V30 END CTAB
M  END
>  <Molecule Name>


>  <status>
DISCONTINUED

>  <cas>
129-20-4

>  <name>
OXYPHENBUTAZONE

>  <ID>
301

>  <Smiles>
CCCCC(C(N(c1ccccc1)N1c(cc2)ccc2O)=O)C1=O

$$$$

Actelion Java MolfileCreator 2.0

  0  0  0  0  0  0              0 V3000
M  V30 BEGIN CTAB
M  V30 COUNTS 12 12 0 0 0
M  V30 BEGIN ATOM
M  V30 1 O 2.1673 2.6418 0.0 0
M  V30 2 N 1.9594 1.6636 0.0 0 CHG=1
M  V30 3 O 1.0084 1.3546 0.0 0 CHG=-1
M  V30 4 C 2.7026 0.9945 0.0 0
M  V30 5 N 2.598 0.0 0.0 0
M  V30 6 C 3.6807 1.2024 0.0 0
M  V30 7 C 3.5116 -0.4067 0.0 0
M  V30 8 C 1.732 -0.5 0.0 0
M  V30 9 N 4.1807 0.3364 0.0 0
M  V30 10 C 3.7195 -1.3848 0.0 0
M  V30 11 C 0.866 0.0 0.0 0
M  V30 12 O 0.0 -0.5 0.0 0
M  V30 END ATOM
M  V30 BEGIN BOND
M  V30 1 2 1 2
M  V30 2 1 2 3
M  V30 3 1 2 4
M  V30 4 1 4 5
M  V30 5 2 4 6
M  V30 6 1 5 7
M  V30 7 1 5 8
M  V30 8 1 6 9
M  V30 9 1 7 10
M  V30 10 1 8 11
M  V30 11 1 11 12
M  V30 12 2 7 9
M  V30 END BOND
M  V30 END CTAB
M  END
>  <Molecule Name>


>  <status>
-

>  <cas>
443-48-1

>  <name>
METRONIDAZOLE

>  <ID>
302

>  <Smiles>
Cc(n1CCO)ncc1[N+]([O-])=O

$$$$

Actelion Java MolfileCreator 2.0

  0  0  0  0  0  0              0 V3000
M  V30 BEGIN CTAB
M  V30 COUNTS 22 25 0 0 0
M  V30 BEGIN ATOM
M  V30 1 N 1.299 0.0 0.0 0
M  V30 2 C 2.598 -0.75 0.0 0
M  V30 3 C 1.299 1.4999 0.0 0
M  V30 4 C 0.0 -0.75 0.0 0
M  V30 5 C 3.8971 0.0 0.0 0
M  V30 6 C 2.598 2.2499 0.0 0
M  V30 7 C 3.8971 1.4999 0.0 0
M  V30 8 C 5.1961 2.2499 0.0 0
M  V30 9 C 5.084 3.7458 0.0 0
M  V30 10 C 6.4355 1.405 0.0 0
M  V30 11 C 6.1836 4.766 0.0 0
M  V30 12 C 3.6506 4.1879 0.0 0
M  V30 13 C 7.8688 1.8471 0.0 0
M  V30 14 C 6.1017 -0.0573 0.0 0
M  V30 15 C 7.6668 4.5425 0.0 0
M  V30 16 C 5.8498 6.2284 0.0 0
M  V30 17 C 3.3169 5.6503 0.0 0
M  V30 18 C 8.4168 3.2434 0.0 0
M  V30 19 C 8.9684 0.8268 0.0 0
M  V30 20 C 7.2013 -1.0776 0.0 0
M  V30 21 C 4.4164 6.6705 0.0 0
M  V30 22 C 8.6346 -0.6354 0.0 0
M  V30 END ATOM
M  V30 BEGIN BOND
M  V30 1 1 1 2
M  V30 2 1 1 3
M  V30 3 1 1 4
M  V30 4 1 2 5
M  V30 5 1 3 6
M  V30 6 1 5 7
M  V30 7 2 7 8
M  V30 8 1 8 9
M  V30 9 1 8 10
M  V30 10 2 9 11
M  V30 11 1 9 12
M  V30 12 2 10 13
M  V30 13 1 10 14
M  V30 14 1 11 15
M  V30 15 1 11 16
M  V30 16 2 12 17
M  V30 17 1 13 18
M  V30 18 1 13 19
M  V30 19 2 14 20
M  V30 20 2 16 21
M  V30 21 2 19 22
M  V30 22 1 6 7
M  V30 23 2 15 18
M  V30 24 1 17 21
M  V30 25 1 20 22
M  V30 END BOND
M  V30 END CTAB
M  END
>  <Molecule Name>


>  <status>
-

>  <cas>
129-03-3

>  <name>
CYPROHEPTADINE

>  <ID>
303

>  <Smiles>
CN(CC1)CCC1=C1c(cccc2)c2C=Cc2c1cccc2

$$$$

Actelion Java MolfileCreator 2.0

  0  0  0  0  0  0              0 V3000
M  V30 BEGIN CTAB
M  V30 COUNTS 28 31 0 0 0
M  V30 BEGIN ATOM
M  V30 1 F 5.0694 -3.4206 0.0 0
M  V30 2 C 3.8793 -3.574 0.0 0 CFG=2
M  V30 3 C 4.5484 -4.3172 0.0 0 CFG=2
M  V30 4 C 4.1883 -2.623 0.0 0 CFG=1
M  V30 5 C 2.9011 -3.7819 0.0 0 CFG=2
M  V30 6 C 4.2394 -5.2682 0.0 0
M  V30 7 C 5.5266 -4.1093 0.0 0
M  V30 8 C 4.8574 -3.1161 0.0 0
M  V30 9 O 5.1664 -2.4151 0.0 0
M  V30 10 C 3.5192 -1.8798 0.0 0
M  V30 11 C 2.232 -3.0388 0.0 0 CFG=1
M  V30 12 C 2.5921 -4.733 0.0 0
M  V30 13 C 4.9085 -6.0114 0.0 0
M  V30 14 C 3.2612 -5.4761 0.0 0
M  V30 15 C 6.1957 -4.8524 0.0 0
M  V30 16 C 2.541 -2.0877 0.0 0 CFG=1
M  V30 17 C 1.232 -3.0388 0.0 0
M  V30 18 C 5.8867 -5.8035 0.0 0
M  V30 19 C 1.732 -1.5 0.0 0 CFG=1
M  V30 20 C 2.9091 -1.1905 0.0 0
M  V30 21 C 0.923 -2.0877 0.0 0 CFG=1
M  V30 22 O 6.5558 -6.5466 0.0 0
M  V30 23 O 2.5429 -1.0055 0.0 0
M  V30 24 C 1.732 -0.5 0.0 0
M  V30 25 C -0.028 -1.7787 0.0 0
M  V30 26 O 2.598 0.0 0.0 0
M  V30 27 C 0.866 0.0 0.0 0
M  V30 28 O 0.0 -0.5 0.0 0
M  V30 END ATOM
M  V30 BEGIN BOND
M  V30 1 1 2 1 CFG=1
M  V30 2 1 3 2
M  V30 3 1 4 2
M  V30 4 1 5 2
M  V30 5 1 3 6
M  V30 6 1 3 7
M  V30 7 1 3 8 CFG=3
M  V30 8 1 4 9 CFG=3
M  V30 9 1 4 10
M  V30 10 1 11 5
M  V30 11 1 5 12 CFG=1
M  V30 12 2 6 13
M  V30 13 1 6 14
M  V30 14 2 7 15
M  V30 15 1 16 10
M  V30 16 1 11 17 CFG=3
M  V30 17 1 13 18
M  V30 18 1 19 16
M  V30 19 1 16 20 CFG=3
M  V30 20 1 21 17
M  V30 21 2 18 22
M  V30 22 1 19 23 CFG=1
M  V30 23 1 19 24
M  V30 24 1 21 25 CFG=3
M  V30 25 2 24 26
M  V30 26 1 24 27
M  V30 27 1 27 28
M  V30 28 1 11 16
M  V30 29 1 12 14
M  V30 30 1 15 18
M  V30 31 1 19 21
M  V30 END BOND
M  V30 BEGIN COLLECTION
M  V30 MDLV30/STERAC1 ATOMS=(8 2 3 4 5 11 16 19 21)
M  V30 END COLLECTION
M  V30 END CTAB
M  END
>  <Molecule Name>


>  <status>
DISCONTINUED

>  <cas>
378-44-9

>  <name>
BETAMETHASONE

>  <ID>
304

>  <Smiles>
C[C@@H](C[C@@H]([C@H](CCC([C@]1(C)C=C2)=CC2=O)[C@@]11F)[C@]2(C)C[C@@H]1O)[C@@]2(C(CO)=O)O

$$$$

Actelion Java MolfileCreator 2.0

  0  0  0  0  0  0              0 V3000
M  V30 BEGIN CTAB
M  V30 COUNTS 31 34 0 0 0
M  V30 BEGIN ATOM
M  V30 1 F 9.6065 -4.9298 0.0 0
M  V30 2 C 8.4196 -5.3627 0.0 0 CFG=2
M  V30 3 C 9.4236 -6.4778 0.0 0 CFG=2
M  V30 4 C 8.8833 -3.9357 0.0 0 CFG=1
M  V30 5 C 6.9519 -5.6747 0.0 0 CFG=2
M  V30 6 C 8.9599 -7.9048 0.0 0
M  V30 7 C 10.8913 -6.1658 0.0 0
M  V30 8 C 10.1525 -4.7855 0.0 0
M  V30 9 O 10.351 -3.6237 0.0 0
M  V30 10 C 7.8793 -2.8206 0.0 0
M  V30 11 C 5.9479 -4.5596 0.0 0 CFG=1
M  V30 12 C 6.4883 -7.1017 0.0 0
M  V30 13 C 9.964 -9.0199 0.0 0
M  V30 14 C 7.4923 -8.2168 0.0 0
M  V30 15 C 11.8953 -7.2809 0.0 0
M  V30 16 C 6.4116 -3.1326 0.0 0 CFG=1
M  V30 17 C 4.4475 -4.5596 0.0 0
M  V30 18 C 11.4316 -8.7079 0.0 0
M  V30 19 C 5.1977 -2.2506 0.0 0 CFG=1
M  V30 20 C 6.9639 -1.7864 0.0 0
M  V30 21 C 3.9838 -3.1326 0.0 0 CFG=1
M  V30 22 O 12.4356 -9.823 0.0 0
M  V30 23 O 6.4145 -1.5087 0.0 0
M  V30 24 C 5.1977 -0.7502 0.0 0
M  V30 25 C 2.5568 -2.6689 0.0 0
M  V30 26 O 6.4971 0.0 0.0 0
M  V30 27 C 3.8983 0.0 0.0 0
M  V30 28 O 2.5988 -0.7502 0.0 0
M  V30 29 C 1.2994 0.0 0.0 0
M  V30 30 O 1.2994 1.5004 0.0 0
M  V30 31 C 0.0 -0.7502 0.0 0
M  V30 END ATOM
M  V30 BEGIN BOND
M  V30 1 1 2 1 CFG=1
M  V30 2 1 3 2
M  V30 3 1 4 2
M  V30 4 1 5 2
M  V30 5 1 3 6
M  V30 6 1 3 7
M  V30 7 1 3 8 CFG=3
M  V30 8 1 4 9 CFG=3
M  V30 9 1 4 10
M  V30 10 1 11 5
M  V30 11 1 5 12 CFG=1
M  V30 12 2 6 13
M  V30 13 1 6 14
M  V30 14 2 7 15
M  V30 15 1 16 10
M  V30 16 1 11 17 CFG=3
M  V30 17 1 13 18
M  V30 18 1 19 16
M  V30 19 1 16 20 CFG=3
M  V30 20 1 21 17
M  V30 21 2 18 22
M  V30 22 1 19 23 CFG=1
M  V30 23 1 19 24
M  V30 24 1 21 25 CFG=3
M  V30 25 2 24 26
M  V30 26 1 24 27
M  V30 27 1 27 28
M  V30 28 1 28 29
M  V30 29 2 29 30
M  V30 30 1 29 31
M  V30 31 1 11 16
M  V30 32 1 12 14
M  V30 33 1 15 18
M  V30 34 1 19 21
M  V30 END BOND
M  V30 BEGIN COLLECTION
M  V30 MDLV30/STERAC1 ATOMS=(8 2 3 4 5 11 16 19 21)
M  V30 END COLLECTION
M  V30 END CTAB
M  END
>  <Molecule Name>


>  <status>
-

>  <cas>
987-24-6

>  <name>
BETAMETHASONE ACETATE

>  <ID>
305

>  <Smiles>
C[C@@H](C[C@@H]([C@H](CCC([C@]1(C)C=C2)=CC2=O)[C@@]11F)[C@]2(C)C[C@@H]1O)[C@@]2(C(COC(C)=O)=O)O

$$$$

Actelion Java MolfileCreator 2.0

  0  0  0  0  0  0              0 V3000
M  V30 BEGIN CTAB
M  V30 COUNTS 34 37 0 0 0
M  V30 BEGIN ATOM
M  V30 1 F -0.1375 -5.8719 0.0 0
M  V30 2 C -1.084 -5.0959 0.0 0 CFG=2
M  V30 3 C -1.5476 -6.5227 0.0 0 CFG=2
M  V30 4 C 0.3834 -4.784 0.0 0 CFG=1
M  V30 5 C -2.0879 -3.981 0.0 0 CFG=2
M  V30 6 C -3.0151 -6.8347 0.0 0
M  V30 7 C -0.5437 -7.6377 0.0 0
M  V30 8 C 0.2949 -6.2108 0.0 0
M  V30 9 O 1.3873 -5.8989 0.0 0
M  V30 10 C 0.7892 -3.4078 0.0 0
M  V30 11 C -1.6243 -2.5541 0.0 0 CFG=1
M  V30 12 C -3.5554 -4.2929 0.0 0
M  V30 13 C -3.4787 -8.2615 0.0 0
M  V30 14 C -4.019 -5.7197 0.0 0
M  V30 15 C -1.0073 -9.0645 0.0 0
M  V30 16 C -0.1568 -2.2422 0.0 0 CFG=1
M  V30 17 C -2.3744 -1.2548 0.0 0
M  V30 18 C -2.4748 -9.3765 0.0 0
M  V30 19 C 0.0 -0.7501 0.0 0 CFG=1
M  V30 20 C 1.401 -1.9641 0.0 0
M  V30 21 C -1.3705 -0.1399 0.0 0 CFG=1
M  V30 22 O -2.9385 -10.8033 0.0 0
M  V30 23 O 1.2992 0.0 0.0 0
M  V30 24 C 1.2288 -1.4026 0.0 0
M  V30 25 C -1.6825 1.3275 0.0 0
M  V30 26 C 1.2992 1.5002 0.0 0
M  V30 27 O 2.595 -0.8861 0.0 0
M  V30 28 C 1.2954 -2.964 0.0 0
M  V30 29 O 0.0 2.2504 0.0 0
M  V30 30 C 2.5985 2.2504 0.0 0
M  V30 31 O 2.4379 -3.8826 0.0 0
M  V30 32 C 2.5985 3.7507 0.0 0
M  V30 33 C 3.8978 4.5008 0.0 0
M  V30 34 C 3.8978 6.0011 0.0 0
M  V30 END ATOM
M  V30 BEGIN BOND
M  V30 1 1 2 1 CFG=1
M  V30 2 1 3 2
M  V30 3 1 4 2
M  V30 4 1 5 2
M  V30 5 1 3 6
M  V30 6 1 3 7
M  V30 7 1 3 8 CFG=3
M  V30 8 1 4 9 CFG=3
M  V30 9 1 4 10
M  V30 10 1 11 5
M  V30 11 1 5 12 CFG=1
M  V30 12 2 6 13
M  V30 13 1 6 14
M  V30 14 2 7 15
M  V30 15 1 16 10
M  V30 16 1 11 17 CFG=3
M  V30 17 1 13 18
M  V30 18 1 19 16
M  V30 19 1 16 20 CFG=3
M  V30 20 1 21 17
M  V30 21 2 18 22
M  V30 22 1 19 23
M  V30 23 1 19 24 CFG=3
M  V30 24 1 21 25 CFG=3
M  V30 25 1 23 26
M  V30 26 2 24 27
M  V30 27 1 24 28
M  V30 28 2 26 29
M  V30 29 1 26 30
M  V30 30 1 28 31
M  V30 31 1 30 32
M  V30 32 1 32 33
M  V30 33 1 33 34
M  V30 34 1 11 16
M  V30 35 1 12 14
M  V30 36 1 15 18
M  V30 37 1 19 21
M  V30 END BOND
M  V30 BEGIN COLLECTION
M  V30 MDLV30/STERAC1 ATOMS=(8 2 3 4 5 11 16 19 21)
M  V30 END COLLECTION
M  V30 END CTAB
M  END
>  <Molecule Name>


>  <status>
-

>  <cas>
2152-44-5

>  <name>
BETAMETHASONE VALERATE

>  <ID>
306

>  <Smiles>
CCCCC(O[C@]([C@@H](C)C1)([C@@](C)(C[C@@H]2O)[C@@H]1[C@H](CCC([C@]1(C)C=C3)=CC3=O)[C@@]12F)C(CO)=O)=O

$$$$

Actelion Java MolfileCreator 2.0

  0  0  0  0  0  0              0 V3000
M  V30 BEGIN CTAB
M  V30 COUNTS 59 67 0 0 0
M  V30 BEGIN ATOM
M  V30 1 O 11.2005 2.9026 0.0 0
M  V30 2 C 10.1914 4.0968 0.0 0
M  V30 3 O 8.5551 3.6555 0.0 0
M  V30 4 C 10.5536 5.4271 0.0 0 CFG=2
M  V30 5 C 7.7314 4.7393 0.0 0
M  V30 6 C 9.1249 4.9629 0.0 0
M  V30 7 C 11.4785 4.2433 0.0 0
M  V30 8 C 10.606 6.9284 0.0 0
M  V30 9 C 7.95 6.1132 0.0 0
M  V30 10 C 8.8749 3.3517 0.0 0
M  V30 11 N 12.8508 3.6323 0.0 0
M  V30 12 C 10.3432 3.0171 0.0 0
M  V30 13 C 9.0603 7.049 0.0 0 CFG=2
M  V30 14 O 8.2593 7.3836 0.0 0
M  V30 15 C 6.5182 5.45 0.0 0
M  V30 16 C 7.3838 3.0293 0.0 0
M  V30 17 C 12.6938 2.1383 0.0 0
M  V30 18 C 11.2244 1.826 0.0 0
M  V30 19 C 9.2601 4.006 0.0 0
M  V30 20 C 8.753 5.796 0.0 0
M  V30 21 C 7.8874 8.2166 0.0 0
M  V30 22 C 9.7495 7.9017 0.0 0
M  V30 23 C 6.2675 4.0345 0.0 0
M  V30 24 C 6.7728 1.6569 0.0 0 CFG=2
M  V30 25 C 13.699 1.0219 0.0 0
M  V30 26 C 10.7602 0.3973 0.0 0
M  V30 27 C 7.6886 3.7371 0.0 0
M  V30 28 N 7.2849 5.2036 0.0 0
M  V30 29 C 6.4587 7.7524 0.0 0 CFG=2
M  V30 30 N 4.9665 3.2834 0.0 0
M  V30 31 C 5.2788 1.8139 0.0 0 CFG=2
M  V30 32 C 6.1618 0.2846 0.0 0 CFG=2
M  V30 33 C 8.2668 1.4999 0.0 0
M  V30 34 C 13.2348 -0.4067 0.0 0
M  V30 35 C 11.7654 -0.719 0.0 0
M  V30 36 C 6.1464 6.283 0.0 0
M  V30 37 O 5.03 7.2882 0.0 0
M  V30 38 C 5.3423 8.7576 0.0 0
M  V30 39 C 3.6493 3.8917 0.0 0
M  V30 40 C 3.9029 1.5022 0.0 0 CFG=2
M  V30 41 N 7.2782 -0.7205 0.0 0
M  V30 42 C 5.2038 -0.7511 0.0 0 CFG=1
M  V30 43 C 8.5792 0.0305 0.0 0
M  V30 44 C 3.9136 8.2934 0.0 0
M  V30 45 O 4.2057 2.8945 0.0 0
M  V30 46 C 2.7291 2.4397 0.0 0
M  V30 47 C 3.9029 0.0 0.0 0 CFG=2
M  V30 48 C 7.5585 -2.1155 0.0 0
M  V30 49 C 4.9574 -2.1799 0.0 0
M  V30 50 C 3.8435 -1.3885 0.0 0
M  V30 51 O 1.3371 1.9818 0.0 0
M  V30 52 O 2.9266 3.9263 0.0 0
M  V30 53 O 2.6019 -0.7511 0.0 0
M  V30 54 C 6.2765 -2.8986 0.0 0
M  V30 55 C 3.7154 -2.8852 0.0 0
M  V30 56 C 1.7804 4.8626 0.0 0
M  V30 57 C 1.3009 0.0 0.0 0
M  V30 58 O 1.2874 1.3226 0.0 0
M  V30 59 C 0.0 -0.7511 0.0 0
M  V30 END ATOM
M  V30 BEGIN BOND
M  V30 1 2 1 2
M  V30 2 1 2 3
M  V30 3 1 4 2 CFG=1
M  V30 4 1 3 5
M  V30 5 1 4 6
M  V30 6 1 4 7
M  V30 7 1 4 8
M  V30 8 2 6 9
M  V30 9 1 6 10
M  V30 10 1 7 11
M  V30 11 2 7 12
M  V30 12 1 13 8 CFG=3
M  V30 13 1 9 14
M  V30 14 1 9 15
M  V30 15 2 10 16
M  V30 16 1 11 17
M  V30 17 1 12 18
M  V30 18 1 12 19
M  V30 19 1 13 20
M  V30 20 1 13 21
M  V30 21 1 14 22
M  V30 22 2 15 23
M  V30 23 1 24 16 CFG=1
M  V30 24 1 17 25
M  V30 25 1 18 26
M  V30 26 1 19 27
M  V30 27 1 20 28
M  V30 28 1 29 21
M  V30 29 1 23 30
M  V30 30 1 31 24
M  V30 31 1 32 24
M  V30 32 1 24 33
M  V30 33 2 25 34
M  V30 34 2 26 35
M  V30 35 1 28 36
M  V30 36 1 29 37 CFG=3
M  V30 37 1 29 38
M  V30 38 1 30 39
M  V30 39 1 40 31
M  V30 40 1 32 41 CFG=3
M  V30 41 1 42 32
M  V30 42 1 33 43
M  V30 43 1 38 44
M  V30 44 1 40 45 CFG=3
M  V30 45 1 40 46
M  V30 46 1 47 40
M  V30 47 1 41 48
M  V30 48 1 42 49
M  V30 49 1 42 50 CFG=1
M  V30 50 2 46 51
M  V30 51 1 46 52
M  V30 52 1 47 53 CFG=3
M  V30 53 1 48 54
M  V30 54 1 50 55
M  V30 55 1 52 56
M  V30 56 1 53 57
M  V30 57 2 57 58
M  V30 58 1 57 59
M  V30 59 1 16 23
M  V30 60 2 17 18
M  V30 61 1 27 28
M  V30 62 1 29 36
M  V30 63 1 31 30 CFG=1
M  V30 64 1 34 35
M  V30 65 1 41 43
M  V30 66 1 42 47
M  V30 67 2 49 54
M  V30 END BOND
M  V30 BEGIN COLLECTION
M  V30 MDLV30/STERAC1 ATOMS=(9 4 13 24 29 31 32 40 42 47)
M  V30 END COLLECTION
M  V30 END CTAB
M  END
>  <Molecule Name>


>  <status>
-

>  <cas>
865-21-4

>  <name>
VINBLASTINE

>  <ID>
307

>  <Smiles>
CC[C@@](C[C@@H](C1)C[C@@]2(C(OC)=O)c(cc([C@@](CC3)([C@@H]4N3CC=C[C@]4(CC)[C@@H]([C@]3(C(OC)=O)O)OC(C)=O)[C@@H]3N3C)c3c3)c3OC)(CN1CCc1c2[nH]c2c1cccc2)O

$$$$
_c001
Actelion Java MolfileCreator 2.0

  0  0  0  0  0  0              0 V3000
M  V30 BEGIN CTAB
M  V30 COUNTS 17 19 0 0 0
M  V30 BEGIN ATOM
M  V30 1 O 9.673 3.1026 0.0 0
M  V30 2 C 8.173 3.1026 0.0 0
M  V30 3 O 7.423 1.8036 0.0 0
M  V30 4 C 7.423 4.4017 0.0 0
M  V30 5 C 5.923 1.8036 0.0 0
M  V30 6 C 5.923 4.4017 0.0 0
M  V30 7 C 5.173 3.1026 0.0 0
M  V30 8 C 5.173 0.5046 0.0 0
M  V30 9 C 5.173 5.7007 0.0 0
M  V30 10 C 3.673 3.1026 0.0 0
M  V30 11 C 3.673 0.5046 0.0 0
M  V30 12 C 5.923 -0.7944 0.0 0
M  V30 13 C 2.923 1.8036 0.0 0
M  V30 14 O 2.6693 -0.6101 0.0 0
M  V30 15 C 1.4558 1.4917 0.0 0
M  V30 16 C 1.299 0.0 0.0 0
M  V30 17 C 0.0 -0.75 0.0 0
M  V30 END ATOM
M  V30 BEGIN BOND
M  V30 1 2 1 2
M  V30 2 1 2 3
M  V30 3 1 2 4
M  V30 4 1 3 5
M  V30 5 2 4 6
M  V30 6 2 5 7
M  V30 7 1 5 8
M  V30 8 1 6 9
M  V30 9 1 7 10
M  V30 10 2 8 11
M  V30 11 1 8 12
M  V30 12 2 10 13
M  V30 13 1 11 14
M  V30 14 1 13 15
M  V30 15 1 14 16
M  V30 16 1 16 17
M  V30 17 1 6 7
M  V30 18 1 11 13
M  V30 19 2 15 16
M  V30 END BOND
M  V30 END CTAB
M  END
>  <Molecule Name>
_c001

>  <status>
DISCONTINUED

>  <cas>
3902-71-4

>  <name>
TRIOXSALEN

>  <ID>
308

>  <Smiles>
Cc(oc1c2C)cc1cc(C(C)=C1)c2OC1=O

$$$$

Actelion Java MolfileCreator 2.0

  0  0  0  0  0  0              0 V3000
M  V30 BEGIN CTAB
M  V30 COUNTS 21 23 0 0 0
M  V30 BEGIN ATOM
M  V30 1 N 5.1961 -0.75 0.0 0
M  V30 2 C 3.8971 0.0 0.0 0
M  V30 3 C 6.4951 0.0 0.0 0
M  V30 4 C 5.1961 -2.25 0.0 0
M  V30 5 C 2.598 -0.75 0.0 0
M  V30 6 C 1.299 0.0 0.0 0
M  V30 7 C 0.0 -0.75 0.0 0
M  V30 8 C 0.112 -2.2458 0.0 0
M  V30 9 C -1.2393 0.0949 0.0 0
M  V30 10 C -0.9874 -3.266 0.0 0
M  V30 11 C 1.5454 -2.6879 0.0 0
M  V30 12 C -2.6727 -0.3471 0.0 0
M  V30 13 C -0.9055 1.5573 0.0 0
M  V30 14 C -0.6537 -4.7284 0.0 0
M  V30 15 C -2.4707 -3.0425 0.0 0
M  V30 16 C 1.8792 -4.1503 0.0 0
M  V30 17 C -3.7722 0.6731 0.0 0
M  V30 18 C -3.2207 -1.7434 0.0 0
M  V30 19 C -2.0051 2.5776 0.0 0
M  V30 20 C 0.7796 -5.1705 0.0 0
M  V30 21 C -3.4385 2.1354 0.0 0
M  V30 END ATOM
M  V30 BEGIN BOND
M  V30 1 1 1 2
M  V30 2 1 1 3
M  V30 3 1 1 4
M  V30 4 1 2 5
M  V30 5 1 5 6
M  V30 6 2 6 7
M  V30 7 1 7 8
M  V30 8 1 7 9
M  V30 9 2 8 10
M  V30 10 1 8 11
M  V30 11 2 9 12
M  V30 12 1 9 13
M  V30 13 1 10 14
M  V30 14 1 10 15
M  V30 15 2 11 16
M  V30 16 1 12 17
M  V30 17 1 12 18
M  V30 18 2 13 19
M  V30 19 2 14 20
M  V30 20 2 17 21
M  V30 21 1 15 18
M  V30 22 1 16 20
M  V30 23 1 19 21
M  V30 END BOND
M  V30 END CTAB
M  END
>  <Molecule Name>


>  <status>
-

>  <cas>
50-48-6

>  <name>
AMITRIPTYLINE

>  <ID>
309

>  <Smiles>
CN(C)CCC=C(c1c(CC2)cccc1)c1c2cccc1

$$$$

Actelion Java MolfileCreator 2.0

  0  0  0  0  0  0              0 V3000
M  V30 BEGIN CTAB
M  V30 COUNTS 17 18 0 0 0
M  V30 BEGIN ATOM
M  V30 1 S 2.598 -0.75 0.0 0
M  V30 2 O 1.848 -2.049 0.0 0
M  V30 3 O 3.348 -2.049 0.0 0
M  V30 4 N 1.299 0.0 0.0 0
M  V30 5 C 3.8971 0.0 0.0 0
M  V30 6 C 0.0 -0.75 0.0 0
M  V30 7 C 5.1961 -0.75 0.0 0
M  V30 8 C 3.8971 1.5 0.0 0
M  V30 9 N -1.3703 -0.1398 0.0 0
M  V30 10 C -0.1567 -2.2417 0.0 0
M  V30 11 C 6.4952 0.0 0.0 0
M  V30 12 C 5.1961 2.25 0.0 0
M  V30 13 O -2.374 -1.2546 0.0 0
M  V30 14 C -1.624 -2.5536 0.0 0
M  V30 15 C 6.4952 1.5 0.0 0
M  V30 16 C -2.2341 -3.9239 0.0 0
M  V30 17 N 7.7942 2.25 0.0 0
M  V30 END ATOM
M  V30 BEGIN BOND
M  V30 1 2 1 2
M  V30 2 2 1 3
M  V30 3 1 1 4
M  V30 4 1 1 5
M  V30 5 1 4 6
M  V30 6 2 5 7
M  V30 7 1 5 8
M  V30 8 2 6 9
M  V30 9 1 6 10
M  V30 10 1 7 11
M  V30 11 2 8 12
M  V30 12 1 9 13
M  V30 13 2 10 14
M  V30 14 2 11 15
M  V30 15 1 14 16
M  V30 16 1 15 17
M  V30 17 1 12 15
M  V30 18 1 13 14
M  V30 END BOND
M  V30 END CTAB
M  END
>  <Molecule Name>


>  <status>
-

>  <cas>
723-46-6

>  <name>
SULFAMETHOXAZOLE

>  <ID>
310

>  <Smiles>
Cc1cc(NS(c(cc2)ccc2N)(=O)=O)no1

$$$$

Actelion Java MolfileCreator 2.0

  0  0  0  0  0  0              0 V3000
M  V30 BEGIN CTAB
M  V30 COUNTS 27 30 0 0 0
M  V30 BEGIN ATOM
M  V30 1 S 7.7942 -2.2499 0.0 0
M  V30 2 C 7.7942 -0.75 0.0 0
M  V30 3 C 6.4951 -2.9999 0.0 0
M  V30 4 C 6.4951 0.0 0.0 0
M  V30 5 C 9.0932 0.0 0.0 0
M  V30 6 C 5.1961 -2.25 0.0 0
M  V30 7 C 6.4951 -4.5 0.0 0
M  V30 8 N 5.1961 -0.75 0.0 0
M  V30 9 C 6.4951 1.5 0.0 0
M  V30 10 C 9.0932 1.5 0.0 0
M  V30 11 C 3.8971 -3.0 0.0 0
M  V30 12 C 5.1961 -5.25 0.0 0
M  V30 13 C 3.8971 0.0 0.0 0
M  V30 14 C 7.7942 2.25 0.0 0
M  V30 15 C 3.8971 -4.5 0.0 0
M  V30 16 C 2.598 -0.75 0.0 0
M  V30 17 S 7.7942 3.75 0.0 0
M  V30 18 C 1.299 0.0 0.0 0
M  V30 19 C 9.0932 4.5 0.0 0
M  V30 20 N 0.0 -0.75 0.0 0
M  V30 21 C 9.0932 6.0 0.0 0
M  V30 22 C -1.299 0.0 0.0 0
M  V30 23 C 0.0 -2.2499 0.0 0
M  V30 24 C -2.598 -0.7499 0.0 0
M  V30 25 C -1.299 -2.9999 0.0 0
M  V30 26 N -2.598 -2.2499 0.0 0
M  V30 27 C -3.8971 -2.9999 0.0 0
M  V30 END ATOM
M  V30 BEGIN BOND
M  V30 1 1 1 2
M  V30 2 1 1 3
M  V30 3 2 2 4
M  V30 4 1 2 5
M  V30 5 2 3 6
M  V30 6 1 3 7
M  V30 7 1 4 8
M  V30 8 1 4 9
M  V30 9 2 5 10
M  V30 10 1 6 11
M  V30 11 2 7 12
M  V30 12 1 8 13
M  V30 13 2 9 14
M  V30 14 2 11 15
M  V30 15 1 13 16
M  V30 16 1 14 17
M  V30 17 1 16 18
M  V30 18 1 17 19
M  V30 19 1 18 20
M  V30 20 1 19 21
M  V30 21 1 20 22
M  V30 22 1 20 23
M  V30 23 1 22 24
M  V30 24 1 23 25
M  V30 25 1 24 26
M  V30 26 1 26 27
M  V30 27 1 6 8
M  V30 28 1 10 14
M  V30 29 1 12 15
M  V30 30 1 25 26
M  V30 END BOND
M  V30 END CTAB
M  END
>  <Molecule Name>


>  <status>
DISCONTINUED

>  <cas>
1420-55-9

>  <name>
THIETHYLPERAZINE

>  <ID>
311

>  <Smiles>
CCSc(cc1)cc2c1Sc(cccc1)c1N2CCCN1CCN(C)CC1

$$$$
_c001
Actelion Java MolfileCreator 2.0

  0  0  0  0  0  0              0 V3000
M  V30 BEGIN CTAB
M  V30 COUNTS 32 36 0 0 0
M  V30 BEGIN ATOM
M  V30 1 F -0.505 2.2452 0.0 0
M  V30 2 C 0.6793 2.2871 0.0 0 CFG=2
M  V30 3 C 0.0915 3.0961 0.0 0 CFG=2
M  V30 4 C 0.2726 1.3736 0.0 0 CFG=1
M  V30 5 C 1.6738 2.3916 0.0 0 CFG=2
M  V30 6 C 0.4983 4.0097 0.0 0
M  V30 7 C -0.9029 2.9916 0.0 0
M  V30 8 C -0.2918 1.9337 0.0 0
M  V30 9 O -0.7218 1.269 0.0 0
M  V30 10 C 0.8604 0.5646 0.0 0
M  V30 11 C 2.2616 1.5826 0.0 0 CFG=1
M  V30 12 C 2.0806 3.3052 0.0 0
M  V30 13 C -0.0894 4.8187 0.0 0
M  V30 14 C 1.4928 4.1142 0.0 0 CFG=2
M  V30 15 C -1.4907 3.8006 0.0 0
M  V30 16 C 1.8549 0.6691 0.0 0 CFG=1
M  V30 17 C 3.2561 1.4781 0.0 0
M  V30 18 C -1.0839 4.7142 0.0 0
M  V30 19 F 1.8995 5.0278 0.0 0
M  V30 20 C 2.598 0.0 0.0 0 CFG=1
M  V30 21 C 1.5334 -0.1695 0.0 0
M  V30 22 C 3.4641 0.5 0.0 0 CFG=2
M  V30 23 O -1.6717 5.5232 0.0 0
M  V30 24 O 2.8059 -0.9781 0.0 0
M  V30 25 C 1.7615 -0.549 0.0 0
M  V30 26 O 4.2072 -0.1691 0.0 0
M  V30 27 C 3.8005 -1.0826 0.0 0
M  V30 28 O 1.732 -1.5 0.0 0
M  V30 29 C 0.866 0.0 0.0 0
M  V30 30 C 3.8004 -2.0826 0.0 0
M  V30 31 C 4.6665 -1.5826 0.0 0
M  V30 32 O 0.0 -0.5 0.0 0
M  V30 END ATOM
M  V30 BEGIN BOND
M  V30 1 1 2 1 CFG=1
M  V30 2 1 3 2
M  V30 3 1 4 2
M  V30 4 1 5 2
M  V30 5 1 3 6
M  V30 6 1 3 7
M  V30 7 1 3 8 CFG=3
M  V30 8 1 4 9 CFG=3
M  V30 9 1 4 10
M  V30 10 1 11 5
M  V30 11 1 5 12 CFG=1
M  V30 12 2 6 13
M  V30 13 1 14 6
M  V30 14 2 7 15
M  V30 15 1 16 10
M  V30 16 1 11 17 CFG=3
M  V30 17 1 13 18
M  V30 18 1 14 19 CFG=1
M  V30 19 1 20 16
M  V30 20 1 16 21 CFG=3
M  V30 21 1 22 17
M  V30 22 2 18 23
M  V30 23 1 20 24
M  V30 24 1 20 25 CFG=3
M  V30 25 1 22 26 CFG=1
M  V30 26 1 24 27
M  V30 27 2 25 28
M  V30 28 1 25 29
M  V30 29 1 27 30
M  V30 30 1 27 31
M  V30 31 1 29 32
M  V30 32 1 11 16
M  V30 33 1 12 14
M  V30 34 1 15 18
M  V30 35 1 20 22
M  V30 36 1 26 27
M  V30 END BOND
M  V30 BEGIN COLLECTION
M  V30 MDLV30/STERAC1 ATOMS=(9 2 3 4 5 11 14 16 20 22)
M  V30 END COLLECTION
M  V30 END CTAB
M  END
>  <Molecule Name>
_c001

>  <status>
-

>  <cas>
67-73-2

>  <name>
FLUOCINOLONE ACETONIDE

>  <ID>
312

>  <Smiles>
CC(C)(O[C@@H]1C[C@@H]([C@H](C[C@@H](C([C@]2(C)C=C3)=CC3=O)F)[C@@]22F)[C@]3(C)C[C@@H]2O)O[C@@]13C(CO)=O

$$$$
_c001
Actelion Java MolfileCreator 2.0

  0  0  0  0  0  0              0 V3000
M  V30 BEGIN CTAB
M  V30 COUNTS 31 35 0 0 0
M  V30 BEGIN ATOM
M  V30 1 F 2.8574 7.5631 0.0 0
M  V30 2 C 2.2456 6.1889 0.0 0 CFG=1
M  V30 3 C 0.7495 6.0317 0.0 0
M  V30 4 C 3.1298 4.9719 0.0 0
M  V30 5 C -0.1345 7.2487 0.0 0
M  V30 6 C 0.1377 4.6575 0.0 0 CFG=2
M  V30 7 C 2.5179 3.5977 0.0 0 CFG=1
M  V30 8 C -1.6306 7.0914 0.0 0
M  V30 9 C 1.0219 3.4405 0.0 0 CFG=1
M  V30 10 C -1.3582 4.5002 0.0 0
M  V30 11 C -0.474 3.2832 0.0 0
M  V30 12 C 3.4021 2.3807 0.0 0 CFG=2
M  V30 13 O -2.5148 8.3084 0.0 0
M  V30 14 C -2.2424 5.7172 0.0 0
M  V30 15 C 0.4101 2.0662 0.0 0 CFG=2
M  V30 16 C 2.7903 1.0065 0.0 0 CFG=1
M  V30 17 C 4.8982 2.2235 0.0 0
M  V30 18 O -1.0859 1.909 0.0 0
M  V30 19 C 1.2942 0.8493 0.0 0
M  V30 20 C 3.9082 0.0 0.0 0 CFG=2
M  V30 21 C 2.3067 -0.2549 0.0 0
M  V30 22 C 5.2109 0.7521 0.0 0 CFG=1
M  V30 23 O 4.2209 -1.4714 0.0 0
M  V30 24 C 2.6498 -0.8259 0.0 0
M  V30 25 O 6.3288 -0.2544 0.0 0
M  V30 26 C 5.717 -1.6286 0.0 0
M  V30 27 O 2.6054 -2.2564 0.0 0
M  V30 28 C 1.3027 0.0 0.0 0
M  V30 29 C 5.7169 -3.1328 0.0 0
M  V30 30 C 7.0197 -2.3807 0.0 0
M  V30 31 O 0.0 -0.7521 0.0 0
M  V30 END ATOM
M  V30 BEGIN BOND
M  V30 1 1 2 1 CFG=3
M  V30 2 1 2 3
M  V30 3 1 2 4
M  V30 4 2 3 5
M  V30 5 1 6 3
M  V30 6 1 7 4 CFG=3
M  V30 7 1 5 8
M  V30 8 1 9 6
M  V30 9 1 6 10
M  V30 10 1 6 11 CFG=1
M  V30 11 1 12 7
M  V30 12 2 8 13
M  V30 13 1 8 14
M  V30 14 1 9 15 CFG=1
M  V30 15 1 16 12
M  V30 16 1 12 17 CFG=1
M  V30 17 1 15 18 CFG=1
M  V30 18 1 15 19
M  V30 19 1 20 16
M  V30 20 1 16 21 CFG=1
M  V30 21 1 22 17
M  V30 22 1 20 23
M  V30 23 1 20 24 CFG=1
M  V30 24 1 22 25 CFG=3
M  V30 25 1 23 26
M  V30 26 2 24 27
M  V30 27 1 24 28
M  V30 28 1 26 29
M  V30 29 1 26 30
M  V30 30 1 28 31
M  V30 31 1 9 7
M  V30 32 1 10 14
M  V30 33 1 16 19
M  V30 34 1 20 22
M  V30 35 1 25 26
M  V30 END BOND
M  V30 BEGIN COLLECTION
M  V30 MDLV30/STERAC1 ATOMS=(9 2 6 7 9 12 15 16 20 22)
M  V30 END COLLECTION
M  V30 END CTAB
M  END
>  <Molecule Name>
_c001

>  <status>
-

>  <cas>
1524-88-5

>  <name>
FLURANDRENOLIDE

>  <ID>
313

>  <Smiles>
CC(C)(O[C@H]1C[C@H]([C@@H](C[C@H]2F)[C@@H]3[C@](C)(CC4)C2=CC4=O)[C@@]2(C)C[C@H]3O)O[C@]12C(CO)=O

$$$$

Actelion Java MolfileCreator 2.0

  0  0  0  0  0  0              0 V3000
M  V30 BEGIN CTAB
M  V30 COUNTS 23 25 0 0 0
M  V30 BEGIN ATOM
M  V30 1 O 3.9843 0.0 0.0 0
M  V30 2 C 2.6562 -0.7667 0.0 0
M  V30 3 O 2.8206 -2.2017 0.0 0
M  V30 4 C 1.3281 0.0 0.0 0 CFG=2
M  V30 5 C 3.9843 -3.0671 0.0 0 CFG=2
M  V30 6 O 1.3281 1.5335 0.0 0
M  V30 7 C 1.3281 -1.5335 0.0 0
M  V30 8 C 0.0 -0.7667 0.0 0
M  V30 9 C 5.3853 -2.4434 0.0 0
M  V30 10 C 4.1446 -4.5923 0.0 0
M  V30 11 C 0.3021 -2.3241 0.0 0
M  V30 12 C 2.3274 -2.4976 0.0 0
M  V30 13 C -1.4009 -0.143 0.0 0
M  V30 14 C -0.3115 -2.2814 0.0 0
M  V30 15 N 6.4115 -3.583 0.0 0 CHG=1
M  V30 16 C 5.6447 -4.9112 0.0 0
M  V30 17 C 0.0 -3.8339 0.0 0
M  V30 18 C 2.6562 -3.8339 0.0 0
M  V30 19 C -2.4271 -1.2827 0.0 0
M  V30 20 C -1.6603 -2.6108 0.0 0
M  V30 21 C 7.6521 -2.6816 0.0 0
M  V30 22 C 7.8124 -4.2068 0.0 0
M  V30 23 C 1.3281 -4.6007 0.0 0
M  V30 END ATOM
M  V30 BEGIN BOND
M  V30 1 2 1 2
M  V30 2 1 2 3
M  V30 3 1 4 2
M  V30 4 1 5 3 CFG=3
M  V30 5 1 4 6
M  V30 6 1 4 7 CFG=1
M  V30 7 1 4 8
M  V30 8 1 5 9
M  V30 9 1 5 10
M  V30 10 2 7 11
M  V30 11 1 7 12
M  V30 12 1 8 13
M  V30 13 1 8 14
M  V30 14 1 9 15
M  V30 15 1 10 16
M  V30 16 1 11 17
M  V30 17 2 12 18
M  V30 18 1 13 19
M  V30 19 1 14 20
M  V30 20 1 15 21
M  V30 21 1 15 22
M  V30 22 2 17 23
M  V30 23 1 15 16
M  V30 24 1 18 23
M  V30 25 1 19 20
M  V30 END BOND
M  V30 BEGIN COLLECTION
M  V30 MDLV30/STERAC1 ATOMS=(2 4 5)
M  V30 END COLLECTION
M  V30 END CTAB
M  END
>  <Molecule Name>


>  <status>
-

>  <cas>
596-51-0

>  <name>
GLYCOPYRROLATE

>  <ID>
314

>  <Smiles>
C[N+](C)(CC1)C[C@H]1OC([C@@](C1CCCC1)(c1ccccc1)O)=O

$$$$

Actelion Java MolfileCreator 2.0

  0  0  0  0  0  0              0 V3000
M  V30 BEGIN CTAB
M  V30 COUNTS 36 39 0 0 0
M  V30 BEGIN ATOM
M  V30 1 O 5.1961 -0.5 0.0 0
M  V30 2 C 4.3301 0.0 0.0 0
M  V30 3 C 3.4641 -0.5 0.0 0
M  V30 4 N 2.598 0.0 0.0 0
M  V30 5 C 2.598 1.0 0.0 0
M  V30 6 C 1.732 -0.5 0.0 0
M  V30 7 N 3.4641 1.5 0.0 0
M  V30 8 N 1.732 1.4999 0.0 0
M  V30 9 C 0.866 0.0 0.0 0
M  V30 10 C 3.4641 2.5 0.0 0
M  V30 11 C 1.732 2.5 0.0 0
M  V30 12 O 0.0 -0.5 0.0 0
M  V30 13 N 4.3301 3.0 0.0 0
M  V30 14 C 2.598 3.0 0.0 0
M  V30 15 C 0.866 3.0 0.0 0
M  V30 16 C 5.1961 2.5 0.0 0
M  V30 17 C 4.3301 4.0 0.0 0
M  V30 18 N 2.598 4.0 0.0 0
M  V30 19 N 0.866 3.9999 0.0 0
M  V30 20 N 0.0 2.4999 0.0 0
M  V30 21 C 6.0621 2.9999 0.0 0
M  V30 22 C 5.1961 4.5 0.0 0
M  V30 23 C 1.732 4.4999 0.0 0
M  V30 24 C -0.866 2.9999 0.0 0
M  V30 25 C 0.0 1.4999 0.0 0
M  V30 26 C 6.0621 4.0 0.0 0
M  V30 27 N 1.732 5.4999 0.0 0
M  V30 28 C -1.732 2.4999 0.0 0
M  V30 29 C -0.866 0.9999 0.0 0
M  V30 30 C 0.866 5.9999 0.0 0
M  V30 31 C 2.598 5.9999 0.0 0
M  V30 32 C -1.732 1.4999 0.0 0
M  V30 33 C 0.0 5.4999 0.0 0
M  V30 34 C 3.4641 5.4999 0.0 0
M  V30 35 O -0.866 5.9999 0.0 0
M  V30 36 O 4.3301 6.0 0.0 0
M  V30 END ATOM
M  V30 BEGIN BOND
M  V30 1 1 1 2
M  V30 2 1 2 3
M  V30 3 1 3 4
M  V30 4 1 4 5
M  V30 5 1 4 6
M  V30 6 1 5 7
M  V30 7 2 5 8
M  V30 8 1 6 9
M  V30 9 2 7 10
M  V30 10 1 8 11
M  V30 11 1 9 12
M  V30 12 1 10 13
M  V30 13 1 10 14
M  V30 14 2 11 15
M  V30 15 1 13 16
M  V30 16 1 13 17
M  V30 17 2 14 18
M  V30 18 1 15 19
M  V30 19 1 15 20
M  V30 20 1 16 21
M  V30 21 1 17 22
M  V30 22 1 18 23
M  V30 23 1 20 24
M  V30 24 1 20 25
M  V30 25 1 21 26
M  V30 26 1 23 27
M  V30 27 1 24 28
M  V30 28 1 25 29
M  V30 29 1 27 30
M  V30 30 1 27 31
M  V30 31 1 28 32
M  V30 32 1 30 33
M  V30 33 1 31 34
M  V30 34 1 33 35
M  V30 35 1 34 36
M  V30 36 1 11 14
M  V30 37 2 19 23
M  V30 38 1 22 26
M  V30 39 1 29 32
M  V30 END BOND
M  V30 END CTAB
M  END
>  <Molecule Name>


>  <status>
-

>  <cas>
58-32-2

>  <name>
DIPYRIDAMOLE

>  <ID>
315

>  <Smiles>
OCCN(CCO)c(nc12)nc(N3CCCCC3)c2nc(N(CCO)CCO)nc1N1CCCCC1

$$$$

Actelion Java MolfileCreator 2.0

  0  0  0  0  0  0              0 V3000
M  V30 BEGIN CTAB
M  V30 COUNTS 25 26 0 0 0
M  V30 BEGIN ATOM
M  V30 1 Cl 7.7942 -6.75 0.0 0
M  V30 2 C 7.7942 -5.25 0.0 0
M  V30 3 C 9.0932 -4.5 0.0 0
M  V30 4 C 6.4952 -4.5 0.0 0
M  V30 5 S 10.3923 -5.25 0.0 0
M  V30 6 C 9.0932 -3.0 0.0 0
M  V30 7 C 6.4952 -3.0 0.0 0
M  V30 8 O 9.6423 -6.549 0.0 0
M  V30 9 O 11.1423 -3.9509 0.0 0
M  V30 10 N 11.6913 -6.0 0.0 0
M  V30 11 C 7.7942 -2.25 0.0 0
M  V30 12 N 5.1961 -2.25 0.0 0
M  V30 13 S 7.7942 -0.75 0.0 0
M  V30 14 C 5.1961 -0.75 0.0 0 CFG=1
M  V30 15 O 9.2942 -0.75 0.0 0
M  V30 16 O 8.5442 0.549 0.0 0
M  V30 17 N 6.4952 0.0 0.0 0
M  V30 18 C 3.8971 0.0 0.0 0
M  V30 19 C 6.4952 1.5 0.0 0
M  V30 20 S 2.598 -0.75 0.0 0
M  V30 21 C 1.299 0.0 0.0 0
M  V30 22 C 0.0 -0.75 0.0 0
M  V30 23 F 0.75 -2.049 0.0 0
M  V30 24 F -1.299 -1.5 0.0 0
M  V30 25 F -0.75 0.549 0.0 0
M  V30 END ATOM
M  V30 BEGIN BOND
M  V30 1 1 1 2
M  V30 2 2 2 3
M  V30 3 1 2 4
M  V30 4 1 3 5
M  V30 5 1 3 6
M  V30 6 2 4 7
M  V30 7 2 5 8
M  V30 8 2 5 9
M  V30 9 1 5 10
M  V30 10 2 6 11
M  V30 11 1 7 12
M  V30 12 1 11 13
M  V30 13 1 14 12
M  V30 14 2 13 15
M  V30 15 2 13 16
M  V30 16 1 13 17
M  V30 17 1 14 18 CFG=3
M  V30 18 1 17 19
M  V30 19 1 18 20
M  V30 20 1 20 21
M  V30 21 1 21 22
M  V30 22 1 22 23
M  V30 23 1 22 24
M  V30 24 1 22 25
M  V30 25 1 7 11
M  V30 26 1 14 17
M  V30 END BOND
M  V30 BEGIN COLLECTION
M  V30 MDLV30/STERAC1 ATOMS=(1 14)
M  V30 END COLLECTION
M  V30 END CTAB
M  END
>  <Molecule Name>


>  <status>
DISCONTINUED

>  <cas>
346-18-9

>  <name>
POLYTHIAZIDE

>  <ID>
316

>  <Smiles>
CN(C(CSCC(F)(F)F)Nc(c1c2)cc(Cl)c2S(N)(=O)=O)S1(=O)=O

$$$$

Actelion Java MolfileCreator 2.0

  0  0  0  0  0  0              0 V3000
M  V30 BEGIN CTAB
M  V30 COUNTS 15 15 0 0 0
M  V30 BEGIN ATOM
M  V30 1 Cl 5.1961 -0.5 0.0 0
M  V30 2 C 4.3301 0.0 0.0 0
M  V30 3 C 3.4641 -0.5 0.0 0
M  V30 4 N 2.598 0.0 0.0 0
M  V30 5 C 2.598 1.0 0.0 0
M  V30 6 C 1.732 -0.5 0.0 0
M  V30 7 C 3.4641 1.5 0.0 0
M  V30 8 C 1.732 1.4999 0.0 0
M  V30 9 C 0.866 0.0 0.0 0
M  V30 10 O 4.3301 0.9999 0.0 0
M  V30 11 N 3.4641 2.5 0.0 0
M  V30 12 N 1.732 2.5 0.0 0
M  V30 13 Cl 0.0 -0.5 0.0 0
M  V30 14 C 2.598 3.0 0.0 0
M  V30 15 O 2.598 4.0 0.0 0
M  V30 END ATOM
M  V30 BEGIN BOND
M  V30 1 1 1 2
M  V30 2 1 2 3
M  V30 3 1 3 4
M  V30 4 1 4 5
M  V30 5 1 4 6
M  V30 6 1 5 7
M  V30 7 2 5 8
M  V30 8 1 6 9
M  V30 9 2 7 10
M  V30 10 1 7 11
M  V30 11 1 8 12
M  V30 12 1 9 13
M  V30 13 1 11 14
M  V30 14 2 14 15
M  V30 15 1 12 14
M  V30 END BOND
M  V30 END CTAB
M  END
>  <Molecule Name>


>  <status>
DISCONTINUED

>  <cas>
66-75-1

>  <name>
URACIL MUSTARD

>  <ID>
317

>  <Smiles>
O=C(C(N(CCCl)CCCl)=CN1)NC1=O

$$$$

Actelion Java MolfileCreator 2.0

  0  0  0  0  0  0              0 V3000
M  V30 BEGIN CTAB
M  V30 COUNTS 17 18 0 0 0
M  V30 BEGIN ATOM
M  V30 1 O 3.8971 0.0 0.0 0
M  V30 2 C 2.598 -0.75 0.0 0
M  V30 3 C 2.598 -2.25 0.0 0
M  V30 4 C 1.299 0.0 0.0 0
M  V30 5 C 1.299 -3.0 0.0 0
M  V30 6 C 3.8971 -3.0 0.0 0
M  V30 7 C 0.0 -0.75 0.0 0
M  V30 8 C 2.049 1.299 0.0 0
M  V30 9 C 0.549 1.299 0.0 0
M  V30 10 N 1.299 -4.5 0.0 0
M  V30 11 C 3.8971 -4.5 0.0 0
M  V30 12 C -1.299 0.0 0.0 0
M  V30 13 C 0.0 -2.25 0.0 0
M  V30 14 C 2.598 -5.25 0.0 0
M  V30 15 N -2.598 -0.75 0.0 0
M  V30 16 C -1.299 -3.0 0.0 0
M  V30 17 C -2.598 -2.25 0.0 0
M  V30 END ATOM
M  V30 BEGIN BOND
M  V30 1 2 1 2
M  V30 2 1 2 3
M  V30 3 1 2 4
M  V30 4 2 3 5
M  V30 5 1 3 6
M  V30 6 1 4 7
M  V30 7 1 4 8
M  V30 8 1 4 9
M  V30 9 1 5 10
M  V30 10 2 6 11
M  V30 11 2 7 12
M  V30 12 1 7 13
M  V30 13 2 10 14
M  V30 14 1 12 15
M  V30 15 2 13 16
M  V30 16 2 15 17
M  V30 17 1 11 14
M  V30 18 1 16 17
M  V30 END BOND
M  V30 END CTAB
M  END
>  <Molecule Name>


>  <status>
-

>  <cas>
54-36-4

>  <name>
METYRAPONE

>  <ID>
318

>  <Smiles>
CC(C)(C(c1cnccc1)=O)c1cnccc1

$$$$

Actelion Java MolfileCreator 2.0

  0  0  0  0  0  0              0 V3000
M  V30 BEGIN CTAB
M  V30 COUNTS 11 11 0 0 0
M  V30 BEGIN ATOM
M  V30 1 S 2.598 -0.75 0.0 0
M  V30 2 C 1.299 0.0 0.0 0
M  V30 3 N 1.299 1.5 0.0 0
M  V30 4 C 0.0 -0.75 0.0 0
M  V30 5 C -1.299 0.0 0.0 0
M  V30 6 C 0.0 -2.2499 0.0 0
M  V30 7 C -2.598 -0.7499 0.0 0
M  V30 8 C -1.299 -2.9999 0.0 0
M  V30 9 N -2.598 -2.2499 0.0 0
M  V30 10 C -3.8971 0.0 0.0 0
M  V30 11 C -5.1961 -0.7499 0.0 0
M  V30 END ATOM
M  V30 BEGIN BOND
M  V30 1 2 1 2
M  V30 2 1 2 3
M  V30 3 1 2 4
M  V30 4 2 4 5
M  V30 5 1 4 6
M  V30 6 1 5 7
M  V30 7 2 6 8
M  V30 8 2 7 9
M  V30 9 1 7 10
M  V30 10 1 10 11
M  V30 11 1 8 9
M  V30 END BOND
M  V30 END CTAB
M  END
>  <Molecule Name>


>  <status>
-

>  <cas>
536-33-4

>  <name>
ETHIONAMIDE

>  <ID>
319

>  <Smiles>
CCc1nccc(C(N)=S)c1

$$$$

Actelion Java MolfileCreator 2.0

  0  0  0  0  0  0              0 V3000
M  V30 BEGIN CTAB
M  V30 COUNTS 8 7 0 0 0
M  V30 BEGIN ATOM
M  V30 1 Cl 5.1961 -0.75 0.0 0
M  V30 2 C 3.8971 0.0 0.0 0
M  V30 3 Cl 3.8971 1.5 0.0 0
M  V30 4 C 2.598 -0.75 0.0 0
M  V30 5 F 1.848 -2.049 0.0 0
M  V30 6 F 3.348 -2.049 0.0 0
M  V30 7 O 1.299 0.0 0.0 0
M  V30 8 C 0.0 -0.75 0.0 0
M  V30 END ATOM
M  V30 BEGIN BOND
M  V30 1 1 1 2
M  V30 2 1 2 3
M  V30 3 1 2 4
M  V30 4 1 4 5
M  V30 5 1 4 6
M  V30 6 1 4 7
M  V30 7 1 7 8
M  V30 END BOND
M  V30 END CTAB
M  END
>  <Molecule Name>


>  <status>
DISCONTINUED

>  <cas>
76-38-0

>  <name>
METHOXYFLURANE

>  <ID>
320

>  <Smiles>
COC(C(Cl)Cl)(F)F

$$$$

Actelion Java MolfileCreator 2.0

  0  0  0  0  0  0              0 V3000
M  V30 BEGIN CTAB
M  V30 COUNTS 24 27 0 0 0
M  V30 BEGIN ATOM
M  V30 1 Cl 5.1961 -0.5 0.0 0
M  V30 2 C 4.3301 0.0 0.0 0
M  V30 3 C 4.3301 0.9999 0.0 0
M  V30 4 C 3.4641 -0.5 0.0 0
M  V30 5 S 5.1961 1.4999 0.0 0
M  V30 6 C 3.4641 1.4999 0.0 0
M  V30 7 C 2.598 0.0 0.0 0
M  V30 8 O 5.6961 0.6339 0.0 0
M  V30 9 O 4.6961 2.366 0.0 0
M  V30 10 N 6.0621 1.9999 0.0 0
M  V30 11 C 2.598 0.9999 0.0 0
M  V30 12 N 1.732 -0.4999 0.0 0
M  V30 13 S 1.732 1.5 0.0 0
M  V30 14 C 0.866 0.0 0.0 0 CFG=1
M  V30 15 O 2.232 2.3659 0.0 0
M  V30 16 O 1.232 2.3659 0.0 0
M  V30 17 N 0.866 1.0 0.0 0
M  V30 18 C 0.0 -0.5 0.0 0 CFG=1
M  V30 19 C -0.9135 -0.0932 0.0 0 CFG=1
M  V30 20 C -0.1045 -1.4945 0.0 0
M  V30 21 C -2.2814 -0.2602 0.0 0
M  V30 22 C -1.5826 -0.8364 0.0 0
M  V30 23 C -1.0826 -1.7024 0.0 0 CFG=1
M  V30 24 C -2.3859 -1.2547 0.0 0
M  V30 END ATOM
M  V30 BEGIN BOND
M  V30 1 1 1 2
M  V30 2 2 2 3
M  V30 3 1 2 4
M  V30 4 1 3 5
M  V30 5 1 3 6
M  V30 6 2 4 7
M  V30 7 2 5 8
M  V30 8 2 5 9
M  V30 9 1 5 10
M  V30 10 2 6 11
M  V30 11 1 7 12
M  V30 12 1 11 13
M  V30 13 1 14 12 CFG=3
M  V30 14 2 13 15
M  V30 15 2 13 16
M  V30 16 1 13 17
M  V30 17 1 18 14
M  V30 18 1 19 18
M  V30 19 1 18 20 CFG=3
M  V30 20 1 19 21 CFG=3
M  V30 21 1 19 22
M  V30 22 1 23 20 CFG=3
M  V30 23 2 21 24
M  V30 24 1 7 11
M  V30 25 1 14 17
M  V30 26 1 22 23
M  V30 27 1 23 24
M  V30 END BOND
M  V30 BEGIN COLLECTION
M  V30 MDLV30/STERAC1 ATOMS=(4 14 18 19 23)
M  V30 END COLLECTION
M  V30 END CTAB
M  END
>  <Molecule Name>


>  <status>
DISCONTINUED

>  <cas>
177468-84-7

>  <name>
CYCLOTHIAZIDE

>  <ID>
321

>  <Smiles>
NS(c(cc(c(N[C@H]([C@H](C1)[C@H]2C=C[C@@H]1C2)N1)c2)S1(=O)=O)c2Cl)(=O)=O

$$$$

Actelion Java MolfileCreator 2.0

  0  0  0  0  0  0              0 V3000
M  V30 BEGIN CTAB
M  V30 COUNTS 19 21 0 0 0
M  V30 BEGIN ATOM
M  V30 1 N 1.299 1.5 0.0 0
M  V30 2 C 1.299 0.0 0.0 0
M  V30 3 C 2.598 2.2499 0.0 0
M  V30 4 N 2.598 -0.75 0.0 0
M  V30 5 N 0.0 -0.75 0.0 0
M  V30 6 N 2.598 3.75 0.0 0
M  V30 7 C 3.8971 1.4999 0.0 0
M  V30 8 C 3.8971 0.0 0.0 0
M  V30 9 C 3.8971 4.5 0.0 0
M  V30 10 N 5.1961 2.2499 0.0 0
M  V30 11 N 5.1961 -0.75 0.0 0
M  V30 12 N 3.8971 6.0 0.0 0
M  V30 13 C 5.1961 3.75 0.0 0
M  V30 14 C 6.4951 4.5 0.0 0
M  V30 15 C 7.7942 3.75 0.0 0
M  V30 16 C 6.4951 6.0 0.0 0
M  V30 17 C 9.0932 4.5 0.0 0
M  V30 18 C 7.7942 6.75 0.0 0
M  V30 19 C 9.0932 6.0 0.0 0
M  V30 END ATOM
M  V30 BEGIN BOND
M  V30 1 2 1 2
M  V30 2 1 1 3
M  V30 3 1 2 4
M  V30 4 1 2 5
M  V30 5 2 3 6
M  V30 6 1 3 7
M  V30 7 2 4 8
M  V30 8 1 6 9
M  V30 9 2 7 10
M  V30 10 1 8 11
M  V30 11 1 9 12
M  V30 12 2 9 13
M  V30 13 1 13 14
M  V30 14 2 14 15
M  V30 15 1 14 16
M  V30 16 1 15 17
M  V30 17 2 16 18
M  V30 18 2 17 19
M  V30 19 1 7 8
M  V30 20 1 10 13
M  V30 21 1 18 19
M  V30 END BOND
M  V30 END CTAB
M  END
>  <Molecule Name>


>  <status>
-

>  <cas>
396-01-0

>  <name>
TRIAMTERENE

>  <ID>
322

>  <Smiles>
Nc1c(-c2ccccc2)nc(c(N)nc(N)n2)c2n1

$$$$

Actelion Java MolfileCreator 2.0

  0  0  0  0  0  0              0 V3000
M  V30 BEGIN CTAB
M  V30 COUNTS 16 17 0 0 0
M  V30 BEGIN ATOM
M  V30 1 O 4.0874 2.1159 0.0 0
M  V30 2 C 3.6807 1.2024 0.0 0
M  V30 3 O 2.7026 0.9945 0.0 0
M  V30 4 N 4.1807 0.3364 0.0 0
M  V30 5 C 2.598 0.0 0.0 0 CFG=2
M  V30 6 C 3.5116 -0.4067 0.0 0
M  V30 7 C 1.732 -0.5 0.0 0
M  V30 8 O 0.866 0.0 0.0 0
M  V30 9 C 0.0 -0.5 0.0 0
M  V30 10 C -0.866 0.0 0.0 0
M  V30 11 C 0.0 -1.4999 0.0 0
M  V30 12 C -1.732 -0.4999 0.0 0
M  V30 13 C -0.866 -1.9999 0.0 0
M  V30 14 C -1.732 -1.4999 0.0 0
M  V30 15 C -2.598 0.0 0.0 0
M  V30 16 C -0.866 -2.9999 0.0 0
M  V30 END ATOM
M  V30 BEGIN BOND
M  V30 1 2 1 2
M  V30 2 1 2 3
M  V30 3 1 2 4
M  V30 4 1 5 3
M  V30 5 1 4 6
M  V30 6 1 5 7 CFG=3
M  V30 7 1 7 8
M  V30 8 1 8 9
M  V30 9 2 9 10
M  V30 10 1 9 11
M  V30 11 1 10 12
M  V30 12 2 11 13
M  V30 13 2 12 14
M  V30 14 1 12 15
M  V30 15 1 13 16
M  V30 16 1 5 6
M  V30 17 1 13 14
M  V30 END BOND
M  V30 BEGIN COLLECTION
M  V30 MDLV30/STERAC1 ATOMS=(1 5)
M  V30 END COLLECTION
M  V30 END CTAB
M  END
>  <Molecule Name>


>  <status>
-

>  <cas>
1665-48-1

>  <name>
METAXALONE

>  <ID>
323

>  <Smiles>
Cc1cc(OCC(CN2)OC2=O)cc(C)c1

$$$$

Actelion Java MolfileCreator 2.0

  0  0  0  0  0  0              0 V3000
M  V30 BEGIN CTAB
M  V30 COUNTS 20 22 0 0 0
M  V30 BEGIN ATOM
M  V30 1 Cl 0.866 0.0 0.0 0
M  V30 2 C 0.0 -0.5 0.0 0
M  V30 3 C -0.866 0.0 0.0 0
M  V30 4 C 0.0 -1.4999 0.0 0
M  V30 5 C -1.732 -0.4999 0.0 0
M  V30 6 C -0.866 -1.9999 0.0 0
M  V30 7 C -2.5138 0.1234 0.0 0
M  V30 8 C -1.732 -1.4999 0.0 0
M  V30 9 N -3.4888 -0.099 0.0 0
M  V30 10 C -2.2913 1.0984 0.0 0
M  V30 11 N -2.5138 -2.1234 0.0 0
M  V30 12 C -3.9226 -0.9999 0.0 0
M  V30 13 C -1.3357 1.3931 0.0 0
M  V30 14 C -3.0244 1.7785 0.0 0
M  V30 15 C -3.4888 -1.9009 0.0 0
M  V30 16 C -2.2913 -3.0984 0.0 0
M  V30 17 C -1.1132 2.3681 0.0 0
M  V30 18 C -2.8018 2.7535 0.0 0
M  V30 19 O -4.1123 -2.6828 0.0 0
M  V30 20 C -1.8463 3.0482 0.0 0
M  V30 END ATOM
M  V30 BEGIN BOND
M  V30 1 1 1 2
M  V30 2 2 2 3
M  V30 3 1 2 4
M  V30 4 1 3 5
M  V30 5 2 4 6
M  V30 6 1 5 7
M  V30 7 2 5 8
M  V30 8 2 7 9
M  V30 9 1 7 10
M  V30 10 1 8 11
M  V30 11 1 9 12
M  V30 12 2 10 13
M  V30 13 1 10 14
M  V30 14 1 11 15
M  V30 15 1 11 16
M  V30 16 1 13 17
M  V30 17 2 14 18
M  V30 18 2 15 19
M  V30 19 2 17 20
M  V30 20 1 6 8
M  V30 21 1 12 15
M  V30 22 1 18 20
M  V30 END BOND
M  V30 END CTAB
M  END
>  <Molecule Name>


>  <status>
-

>  <cas>
439-14-5

>  <name>
DIAZEPAM

>  <ID>
324

>  <Smiles>
CN(c(ccc(Cl)c1)c1C(c1ccccc1)=NC1)C1=O

$$$$

Actelion Java MolfileCreator 2.0

  0  0  0  0  0  0              0 V3000
M  V30 BEGIN CTAB
M  V30 COUNTS 18 19 0 0 0
M  V30 BEGIN ATOM
M  V30 1 Cl 3.4641 -4.4999 0.0 0
M  V30 2 C 3.4641 -3.4999 0.0 0
M  V30 3 C 4.3301 -3.0 0.0 0
M  V30 4 C 2.598 -2.9999 0.0 0
M  V30 5 S 5.1961 -3.5 0.0 0
M  V30 6 C 4.3301 -1.9999 0.0 0
M  V30 7 C 2.598 -2.0 0.0 0
M  V30 8 O 4.6961 -4.366 0.0 0
M  V30 9 O 5.6961 -2.6339 0.0 0
M  V30 10 N 6.0621 -4.0 0.0 0
M  V30 11 C 3.4641 -1.5 0.0 0
M  V30 12 N 1.732 -1.5 0.0 0
M  V30 13 C 3.4641 -0.5 0.0 0
M  V30 14 C 1.732 -0.5 0.0 0 CFG=1
M  V30 15 O 4.3301 0.0 0.0 0
M  V30 16 N 2.598 0.0 0.0 0
M  V30 17 C 0.866 0.0 0.0 0
M  V30 18 C 0.0 -0.5 0.0 0
M  V30 END ATOM
M  V30 BEGIN BOND
M  V30 1 1 1 2
M  V30 2 2 2 3
M  V30 3 1 2 4
M  V30 4 1 3 5
M  V30 5 1 3 6
M  V30 6 2 4 7
M  V30 7 2 5 8
M  V30 8 2 5 9
M  V30 9 1 5 10
M  V30 10 2 6 11
M  V30 11 1 7 12
M  V30 12 1 11 13
M  V30 13 1 14 12
M  V30 14 2 13 15
M  V30 15 1 13 16
M  V30 16 1 14 17 CFG=3
M  V30 17 1 17 18
M  V30 18 1 7 11
M  V30 19 1 14 16
M  V30 END BOND
M  V30 BEGIN COLLECTION
M  V30 MDLV30/STERAC1 ATOMS=(1 14)
M  V30 END COLLECTION
M  V30 END CTAB
M  END
>  <Molecule Name>


>  <status>
DISCONTINUED

>  <cas>
73-49-4

>  <name>
QUINETHAZONE

>  <ID>
325

>  <Smiles>
CCC(Nc(c1c2)cc(Cl)c2S(N)(=O)=O)NC1=O

$$$$

Actelion Java MolfileCreator 2.0

  0  0  0  0  0  0              0 V3000
M  V30 BEGIN CTAB
M  V30 COUNTS 16 17 0 0 0
M  V30 BEGIN ATOM
M  V30 1 N 3.4641 1.5 0.0 0
M  V30 2 C 2.598 1.0 0.0 0
M  V30 3 C 4.3301 1.0 0.0 0
M  V30 4 N 1.732 1.5 0.0 0
M  V30 5 C 2.598 0.0 0.0 0
M  V30 6 N 5.1961 1.5 0.0 0
M  V30 7 C 4.3301 0.0 0.0 0
M  V30 8 N 1.732 -0.5 0.0 0
M  V30 9 C 3.4641 -0.4999 0.0 0
M  V30 10 N 0.866 0.0 0.0 0
M  V30 11 C 0.0 -0.5 0.0 0
M  V30 12 C -0.866 0.0 0.0 0
M  V30 13 C 0.0 -1.4999 0.0 0
M  V30 14 C -1.732 -0.4999 0.0 0
M  V30 15 C -0.866 -1.9999 0.0 0
M  V30 16 C -1.732 -1.4999 0.0 0
M  V30 END ATOM
M  V30 BEGIN BOND
M  V30 1 2 1 2
M  V30 2 1 1 3
M  V30 3 1 2 4
M  V30 4 1 2 5
M  V30 5 1 3 6
M  V30 6 2 3 7
M  V30 7 1 5 8
M  V30 8 2 5 9
M  V30 9 2 8 10
M  V30 10 1 10 11
M  V30 11 2 11 12
M  V30 12 1 11 13
M  V30 13 1 12 14
M  V30 14 2 13 15
M  V30 15 2 14 16
M  V30 16 1 7 9
M  V30 17 1 15 16
M  V30 END BOND
M  V30 END CTAB
M  END
>  <Molecule Name>


>  <status>
DISCONTINUED

>  <cas>
94-78-0

>  <name>
PHENAZOPYRIDINE

>  <ID>
326

>  <Smiles>
Nc(nc1N)ccc1/N=N/c1ccccc1

$$$$

Actelion Java MolfileCreator 2.0

  0  0  0  0  0  0              0 V3000
M  V30 BEGIN CTAB
M  V30 COUNTS 22 23 0 0 0
M  V30 BEGIN ATOM
M  V30 1 S 5.1961 -0.75 0.0 0
M  V30 2 O 4.4461 -2.049 0.0 0
M  V30 3 O 5.9461 -2.049 0.0 0
M  V30 4 N 3.8971 0.0 0.0 0
M  V30 5 C 6.4952 0.0 0.0 0
M  V30 6 C 2.598 -0.75 0.0 0
M  V30 7 C 7.7942 -0.75 0.0 0
M  V30 8 C 6.4952 1.5 0.0 0
M  V30 9 O 2.598 -2.25 0.0 0
M  V30 10 N 1.299 0.0 0.0 0
M  V30 11 C 9.0932 0.0 0.0 0
M  V30 12 C 7.7942 2.25 0.0 0
M  V30 13 C 0.0 -0.75 0.0 0
M  V30 14 C 9.0932 1.5 0.0 0
M  V30 15 C -1.299 0.0 0.0 0
M  V30 16 C 0.0 -2.25 0.0 0
M  V30 17 C 10.3923 2.25 0.0 0
M  V30 18 C -2.598 -0.75 0.0 0
M  V30 19 C -1.299 -3.0 0.0 0
M  V30 20 O 11.6913 1.5 0.0 0
M  V30 21 C 10.3923 3.75 0.0 0
M  V30 22 C -2.598 -2.25 0.0 0
M  V30 END ATOM
M  V30 BEGIN BOND
M  V30 1 2 1 2
M  V30 2 2 1 3
M  V30 3 1 1 4
M  V30 4 1 1 5
M  V30 5 1 4 6
M  V30 6 2 5 7
M  V30 7 1 5 8
M  V30 8 2 6 9
M  V30 9 1 6 10
M  V30 10 1 7 11
M  V30 11 2 8 12
M  V30 12 1 10 13
M  V30 13 2 11 14
M  V30 14 1 13 15
M  V30 15 1 13 16
M  V30 16 1 14 17
M  V30 17 1 15 18
M  V30 18 1 16 19
M  V30 19 2 17 20
M  V30 20 1 17 21
M  V30 21 1 18 22
M  V30 22 1 12 14
M  V30 23 1 19 22
M  V30 END BOND
M  V30 END CTAB
M  END
>  <Molecule Name>


>  <status>
DISCONTINUED

>  <cas>
968-81-0

>  <name>
ACETOHEXAMIDE

>  <ID>
327

>  <Smiles>
CC(c(cc1)ccc1S(NC(NC1CCCCC1)=O)(=O)=O)=O

$$$$

Actelion Java MolfileCreator 2.0

  0  0  0  0  0  0              0 V3000
M  V30 BEGIN CTAB
M  V30 COUNTS 15 15 0 0 0
M  V30 BEGIN ATOM
M  V30 1 O 5.1961 -0.75 0.0 0
M  V30 2 C 3.8971 0.0 0.0 0
M  V30 3 O 3.8971 1.5 0.0 0 CHG=-1
M  V30 4 C 2.598 -0.75 0.0 0 CFG=1
M  V30 5 N 1.848 -2.049 0.0 0
M  V30 6 C 1.299 0.0 0.0 0
M  V30 7 C 3.348 -2.049 0.0 0
M  V30 8 C 0.0 -0.75 0.0 0
M  V30 9 C -1.299 0.0 0.0 0
M  V30 10 C 0.0 -2.25 0.0 0
M  V30 11 C -2.598 -0.75 0.0 0
M  V30 12 C -1.299 -3.0 0.0 0
M  V30 13 O -3.8971 0.0 0.0 0
M  V30 14 C -2.598 -2.25 0.0 0
M  V30 15 O -3.8971 -3.0 0.0 0
M  V30 END ATOM
M  V30 BEGIN BOND
M  V30 1 2 1 2
M  V30 2 1 2 3
M  V30 3 1 4 2
M  V30 4 1 4 5 CFG=1
M  V30 5 1 4 6
M  V30 6 1 4 7
M  V30 7 1 6 8
M  V30 8 2 8 9
M  V30 9 1 8 10
M  V30 10 1 9 11
M  V30 11 2 10 12
M  V30 12 1 11 13
M  V30 13 2 11 14
M  V30 14 1 14 15
M  V30 15 1 12 14
M  V30 END BOND
M  V30 BEGIN COLLECTION
M  V30 MDLV30/STERAC1 ATOMS=(1 4)
M  V30 END COLLECTION
M  V30 END CTAB
M  END
>  <Molecule Name>


>  <status>
-

>  <cas>
555-30-6

>  <name>
METHYLDOPA

>  <ID>
328

>  <Smiles>
CC(Cc(cc1)cc(O)c1O)(C([O-])=O)N

$$$$

Actelion Java MolfileCreator 2.0

  0  0  0  0  0  0              0 V3000
M  V30 BEGIN CTAB
M  V30 COUNTS 17 17 0 0 0
M  V30 BEGIN ATOM
M  V30 1 O 3.8971 1.5 0.0 0
M  V30 2 C 3.8971 0.0 0.0 0
M  V30 3 O 5.1961 -0.75 0.0 0
M  V30 4 C 2.598 -0.75 0.0 0 CFG=1
M  V30 5 C 6.4952 0.0 0.0 0
M  V30 6 N 1.848 -2.049 0.0 0
M  V30 7 C 1.299 0.0 0.0 0
M  V30 8 C 3.348 -2.049 0.0 0
M  V30 9 C 7.7942 -0.75 0.0 0
M  V30 10 C 0.0 -0.75 0.0 0
M  V30 11 C -1.299 0.0 0.0 0
M  V30 12 C 0.0 -2.25 0.0 0
M  V30 13 C -2.598 -0.75 0.0 0
M  V30 14 C -1.299 -3.0 0.0 0
M  V30 15 O -3.8971 0.0 0.0 0
M  V30 16 C -2.598 -2.25 0.0 0
M  V30 17 O -3.8971 -3.0 0.0 0
M  V30 END ATOM
M  V30 BEGIN BOND
M  V30 1 2 1 2
M  V30 2 1 2 3
M  V30 3 1 4 2
M  V30 4 1 3 5
M  V30 5 1 4 6 CFG=1
M  V30 6 1 4 7
M  V30 7 1 4 8
M  V30 8 1 5 9
M  V30 9 1 7 10
M  V30 10 2 10 11
M  V30 11 1 10 12
M  V30 12 1 11 13
M  V30 13 2 12 14
M  V30 14 1 13 15
M  V30 15 2 13 16
M  V30 16 1 16 17
M  V30 17 1 14 16
M  V30 END BOND
M  V30 BEGIN COLLECTION
M  V30 MDLV30/STERAC1 ATOMS=(1 4)
M  V30 END COLLECTION
M  V30 END CTAB
M  END
>  <Molecule Name>


>  <status>
DISCONTINUED

>  <cas>
2508-79-4

>  <name>
METHYLDOPATE

>  <ID>
329

>  <Smiles>
CCOC(C(C)(Cc(cc1)cc(O)c1O)N)=O

$$$$
_c001
Actelion Java MolfileCreator 2.0

  0  0  0  0  0  0              0 V3000
M  V30 BEGIN CTAB
M  V30 COUNTS 19 20 0 0 0
M  V30 BEGIN ATOM
M  V30 1 O 3.4641 -1.5 0.0 0
M  V30 2 C 3.4641 -0.5 0.0 0
M  V30 3 O 4.3301 0.0 0.0 0
M  V30 4 C 2.598 0.0 0.0 0
M  V30 5 C 5.1476 -0.4719 0.0 0 CFG=2
M  V30 6 C 2.598 0.9999 0.0 0
M  V30 7 C 1.732 -0.5 0.0 0
M  V30 8 C 6.0621 0.0 0.0 0
M  V30 9 C 5.1961 -1.4999 0.0 0
M  V30 10 C 3.4641 1.4999 0.0 0
M  V30 11 C 0.866 0.0 0.0 0
M  V30 12 C 7.2137 -0.7306 0.0 0 CFG=1
M  V30 13 C 6.4046 -2.1319 0.0 0 CFG=2
M  V30 14 C 3.4641 2.4999 0.0 0
M  V30 15 C 0.0 -0.5 0.0 0
M  V30 16 N 6.3001 -1.1374 0.0 0
M  V30 17 C 7.8828 -1.4738 0.0 0
M  V30 18 C 7.3828 -2.3398 0.0 0
M  V30 19 C 5.5321 -0.6939 0.0 0
M  V30 END ATOM
M  V30 BEGIN BOND
M  V30 1 2 1 2
M  V30 2 1 2 3
M  V30 3 1 2 4
M  V30 4 1 5 3 CFG=3
M  V30 5 1 4 6
M  V30 6 1 4 7
M  V30 7 1 5 8
M  V30 8 1 5 9
M  V30 9 1 6 10
M  V30 10 1 7 11
M  V30 11 1 12 8
M  V30 12 1 13 9
M  V30 13 1 10 14
M  V30 14 1 11 15
M  V30 15 1 12 16 CFG=1
M  V30 16 1 12 17
M  V30 17 1 13 18
M  V30 18 1 16 19
M  V30 19 1 13 16 CFG=1
M  V30 20 1 17 18
M  V30 END BOND
M  V30 BEGIN COLLECTION
M  V30 MDLV30/STEABS ATOMS=(3 5 12 13)
M  V30 END COLLECTION
M  V30 END CTAB
M  END
>  <Molecule Name>
_c001

>  <status>
DISCONTINUED

>  <cas>
25333-49-7

>  <name>
ANISOTROPINE

>  <ID>
330

>  <Smiles>
CCCC(CCC)C(O[C@@H]1C[C@H](CC2)N(C)[C@H]2C1)=O

$$$$

Actelion Java MolfileCreator 2.0

  0  0  0  0  0  0              0 V3000
M  V30 BEGIN CTAB
M  V30 COUNTS 12 12 0 0 0
M  V30 BEGIN ATOM
M  V30 1 N 2.598 -0.75 0.0 0
M  V30 2 C 3.8971 0.0 0.0 0
M  V30 3 C 1.299 0.0 0.0 0
M  V30 4 C 2.598 -2.25 0.0 0
M  V30 5 C 3.8971 1.5 0.0 0
M  V30 6 C 0.0 -0.75 0.0 0
M  V30 7 C 3.8971 3.0 0.0 0
M  V30 8 C -1.299 0.0 0.0 0
M  V30 9 C 0.0 -2.2499 0.0 0
M  V30 10 C -2.598 -0.7499 0.0 0
M  V30 11 C -1.299 -2.9999 0.0 0
M  V30 12 C -2.598 -2.2499 0.0 0
M  V30 END ATOM
M  V30 BEGIN BOND
M  V30 1 1 1 2
M  V30 2 1 1 3
M  V30 3 1 1 4
M  V30 4 1 2 5
M  V30 5 1 3 6
M  V30 6 3 5 7
M  V30 7 2 6 8
M  V30 8 1 6 9
M  V30 9 1 8 10
M  V30 10 2 9 11
M  V30 11 2 10 12
M  V30 12 1 11 12
M  V30 END BOND
M  V30 END CTAB
M  END
>  <Molecule Name>


>  <status>
DISCONTINUED

>  <cas>
555-57-7

>  <name>
PARGYLINE

>  <ID>
331

>  <Smiles>
CN(Cc1ccccc1)CC#C

$$$$

Actelion Java MolfileCreator 2.0

  0  0  0  0  0  0              0 V3000
M  V30 BEGIN CTAB
M  V30 COUNTS 10 9 0 0 0
M  V30 BEGIN ATOM
M  V30 1 S 4.3301 0.0 0.0 0
M  V30 2 C 3.4641 -0.5 0.0 0
M  V30 3 C 2.598 0.0 0.0 0 CFG=2
M  V30 4 N 1.732 -0.5 0.0 0
M  V30 5 C 2.598 1.0 0.0 0
M  V30 6 C 0.866 0.0 0.0 0
M  V30 7 O 3.4641 1.4999 0.0 0
M  V30 8 O 1.732 1.5 0.0 0 CHG=-1
M  V30 9 O 0.866 1.0 0.0 0
M  V30 10 C 0.0 -0.5 0.0 0
M  V30 END ATOM
M  V30 BEGIN BOND
M  V30 1 1 1 2
M  V30 2 1 3 2
M  V30 3 1 3 4 CFG=3
M  V30 4 1 3 5
M  V30 5 1 4 6
M  V30 6 2 5 7
M  V30 7 1 5 8
M  V30 8 2 6 9
M  V30 9 1 6 10
M  V30 END BOND
M  V30 BEGIN COLLECTION
M  V30 MDLV30/STERAC1 ATOMS=(1 3)
M  V30 END COLLECTION
M  V30 END CTAB
M  END
>  <Molecule Name>


>  <status>
-

>  <cas>
616-91-1

>  <name>
ACETYLCYSTEINE

>  <ID>
332

>  <Smiles>
CC(NC(CS)C([O-])=O)=O

$$$$

Actelion Java MolfileCreator 2.0

  0  0  0  0  0  0              0 V3000
M  V30 BEGIN CTAB
M  V30 COUNTS 20 22 0 0 0
M  V30 BEGIN ATOM
M  V30 1 N 4.3301 0.0 0.0 0
M  V30 2 C 4.2553 0.9972 0.0 0
M  V30 3 C 5.1563 -0.5633 0.0 0
M  V30 4 C 3.4641 -0.5 0.0 0
M  V30 5 C 4.9884 1.6773 0.0 0
M  V30 6 C 3.2998 1.2919 0.0 0
M  V30 7 C 6.1119 -0.2685 0.0 0
M  V30 8 C 4.9338 -1.5382 0.0 0
M  V30 9 C 2.598 0.0 0.0 0
M  V30 10 C 4.7659 2.6523 0.0 0
M  V30 11 C 5.9772 1.5283 0.0 0
M  V30 12 C 3.0773 2.2668 0.0 0
M  V30 13 C 6.8449 -0.9487 0.0 0
M  V30 14 C 6.4772 0.6623 0.0 0
M  V30 15 C 5.6668 -2.2184 0.0 0
M  V30 16 C 1.732 -0.5 0.0 0
M  V30 17 C 3.8103 2.947 0.0 0
M  V30 18 C 6.6224 -1.9236 0.0 0
M  V30 19 N 0.866 0.0 0.0 0
M  V30 20 C 0.0 -0.5 0.0 0
M  V30 END ATOM
M  V30 BEGIN BOND
M  V30 1 1 1 2
M  V30 2 1 1 3
M  V30 3 1 1 4
M  V30 4 2 2 5
M  V30 5 1 2 6
M  V30 6 2 3 7
M  V30 7 1 3 8
M  V30 8 1 4 9
M  V30 9 1 5 10
M  V30 10 1 5 11
M  V30 11 2 6 12
M  V30 12 1 7 13
M  V30 13 1 7 14
M  V30 14 2 8 15
M  V30 15 1 9 16
M  V30 16 2 10 17
M  V30 17 2 13 18
M  V30 18 1 16 19
M  V30 19 1 19 20
M  V30 20 1 11 14
M  V30 21 1 12 17
M  V30 22 1 15 18
M  V30 END BOND
M  V30 END CTAB
M  END
>  <Molecule Name>


>  <status>
-

>  <cas>
50-47-5

>  <name>
DESIPRAMINE

>  <ID>
333

>  <Smiles>
CNCCCN(c1c(CC2)cccc1)c1c2cccc1

$$$$

Actelion Java MolfileCreator 2.0

  0  0  0  0  0  0              0 V3000
M  V30 BEGIN CTAB
M  V30 COUNTS 22 25 0 0 0
M  V30 BEGIN ATOM
M  V30 1 O 2.2397 8.9507 0.0 0
M  V30 2 C 2.083 7.4589 0.0 0
M  V30 3 O 0.7126 6.8488 0.0 0
M  V30 4 C 3.2965 6.5772 0.0 0
M  V30 5 C 0.5558 5.357 0.0 0
M  V30 6 C 3.1397 5.0854 0.0 0 CFG=1
M  V30 7 C 1.7694 4.4753 0.0 0 CFG=1
M  V30 8 C 4.3532 4.2037 0.0 0
M  V30 9 C 1.6126 2.9835 0.0 0 CFG=2
M  V30 10 C 0.399 3.8652 0.0 0
M  V30 11 C 4.1964 2.7119 0.0 0
M  V30 12 C 2.8261 2.1018 0.0 0 CFG=1
M  V30 13 C 0.2423 2.3734 0.0 0
M  V30 14 C 2.6693 0.6101 0.0 0 CFG=1
M  V30 15 C 0.0855 0.8816 0.0 0
M  V30 16 C 1.299 0.0 0.0 0 CFG=2
M  V30 17 C 3.673 -0.5046 0.0 0
M  V30 18 C 1.4558 -1.4917 0.0 0 CFG=2
M  V30 19 C 0.0 -0.75 0.0 0
M  V30 20 C 2.923 -1.8036 0.0 0
M  V30 21 O -0.0113 -1.8036 0.0 0
M  V30 22 C 0.9923 -2.9183 0.0 0
M  V30 END ATOM
M  V30 BEGIN BOND
M  V30 1 2 1 2
M  V30 2 1 2 3
M  V30 3 1 2 4
M  V30 4 1 3 5
M  V30 5 1 6 4 CFG=3
M  V30 6 1 7 5
M  V30 7 1 6 8
M  V30 8 1 9 7
M  V30 9 1 7 10 CFG=3
M  V30 10 1 8 11
M  V30 11 1 12 9
M  V30 12 1 9 13 CFG=3
M  V30 13 1 14 12
M  V30 14 1 13 15
M  V30 15 1 16 14
M  V30 16 1 14 17 CFG=3
M  V30 17 1 18 16
M  V30 18 1 16 19 CFG=3
M  V30 19 1 17 20
M  V30 20 1 18 21 CFG=3
M  V30 21 1 18 22
M  V30 22 1 6 7
M  V30 23 1 12 11 CFG=1
M  V30 24 1 15 16
M  V30 25 1 18 20
M  V30 END BOND
M  V30 BEGIN COLLECTION
M  V30 MDLV30/STERAC1 ATOMS=(7 6 7 9 12 14 16 18)
M  V30 END COLLECTION
M  V30 END CTAB
M  END
>  <Molecule Name>


>  <status>
DISCONTINUED

>  <cas>
53-39-4

>  <name>
OXANDROLONE

>  <ID>
334

>  <Smiles>
C[C@](CC1)([C@@](C)(CC2)[C@@H]1[C@H](CC1)[C@H]2[C@@](C)(CO2)[C@@H]1CC2=O)O

$$$$

Actelion Java MolfileCreator 2.0

  0  0  0  0  0  0              0 V3000
M  V30 BEGIN CTAB
M  V30 COUNTS 17 18 0 0 0
M  V30 BEGIN ATOM
M  V30 1 I 6.4793 -2.2453 0.0 0
M  V30 2 C 5.8915 -1.4363 0.0 0
M  V30 3 C 6.2982 -0.5228 0.0 0
M  V30 4 C 4.897 -1.5408 0.0 0
M  V30 5 O 7.2928 -0.4182 0.0 0
M  V30 6 N 5.7105 0.2861 0.0 0
M  V30 7 N 4.3092 -0.7318 0.0 0
M  V30 8 C 4.7159 0.1816 0.0 0
M  V30 9 C 3.3147 -0.8364 0.0 0 CFG=1
M  V30 10 O 4.1282 0.9906 0.0 0
M  V30 11 O 2.6455 -0.0932 0.0 0
M  V30 12 C 2.8147 -1.7024 0.0 0
M  V30 13 C 1.732 -0.5 0.0 0 CFG=2
M  V30 14 C 1.8365 -1.4945 0.0 0 CFG=2
M  V30 15 C 0.866 0.0 0.0 0
M  V30 16 O 1.0934 -2.1636 0.0 0
M  V30 17 O 0.0 -0.5 0.0 0
M  V30 END ATOM
M  V30 BEGIN BOND
M  V30 1 1 1 2
M  V30 2 1 2 3
M  V30 3 2 2 4
M  V30 4 2 3 5
M  V30 5 1 3 6
M  V30 6 1 4 7
M  V30 7 1 6 8
M  V30 8 1 9 7 CFG=3
M  V30 9 2 8 10
M  V30 10 1 9 11
M  V30 11 1 9 12
M  V30 12 1 13 11
M  V30 13 1 14 12
M  V30 14 1 13 15 CFG=3
M  V30 15 1 14 16 CFG=1
M  V30 16 1 15 17
M  V30 17 1 7 8
M  V30 18 1 13 14
M  V30 END BOND
M  V30 BEGIN COLLECTION
M  V30 MDLV30/STERAC1 ATOMS=(3 9 13 14)
M  V30 END COLLECTION
M  V30 END CTAB
M  END
>  <Molecule Name>


>  <status>
DISCONTINUED

>  <cas>
54-42-2

>  <name>
IDOXURIDINE

>  <ID>
335

>  <Smiles>
OC[C@@H]([C@@H](C1)O)O[C@@H]1N(C=C(C(N1)=O)I)C1=O

$$$$

Actelion Java MolfileCreator 2.0

  0  0  0  0  0  0              0 V3000
M  V30 BEGIN CTAB
M  V30 COUNTS 21 24 0 0 0
M  V30 BEGIN ATOM
M  V30 1 O 1.258 -1.5669 0.0 0
M  V30 2 C 0.0 -0.75 0.0 0 CFG=2
M  V30 3 C -1.3703 -0.1398 0.0 0 CFG=2
M  V30 4 C -0.1567 -2.2417 0.0 0
M  V30 5 C 1.299 0.0 0.0 0
M  V30 6 C -2.374 -1.2546 0.0 0 CFG=1
M  V30 7 C -1.8338 1.2866 0.0 0
M  V30 8 C -0.2556 0.8638 0.0 0
M  V30 9 C -1.624 -2.5536 0.0 0
M  V30 10 C 2.598 -0.75 0.0 0
M  V30 11 C -3.8412 -0.9427 0.0 0 CFG=1
M  V30 12 C -3.301 1.5985 0.0 0
M  V30 13 C -4.3047 0.4838 0.0 0 CFG=2
M  V30 14 C -4.8449 -2.0574 0.0 0
M  V30 15 C -5.7719 0.7957 0.0 0 CFG=2
M  V30 16 C -6.3121 -1.7455 0.0 0
M  V30 17 C -6.7756 -0.319 0.0 0
M  V30 18 C -6.2355 2.2222 0.0 0
M  V30 19 C -8.2428 -0.0071 0.0 0
M  V30 20 C -7.7027 2.5341 0.0 0
M  V30 21 C -8.7064 1.4194 0.0 0
M  V30 END ATOM
M  V30 BEGIN BOND
M  V30 1 1 2 1 CFG=1
M  V30 2 1 3 2
M  V30 3 1 2 4
M  V30 4 1 2 5
M  V30 5 1 6 3
M  V30 6 1 3 7
M  V30 7 1 3 8 CFG=1
M  V30 8 1 4 9
M  V30 9 1 5 10
M  V30 10 1 11 6
M  V30 11 1 7 12
M  V30 12 1 13 11
M  V30 13 1 11 14 CFG=3
M  V30 14 1 15 13
M  V30 15 1 14 16
M  V30 16 1 15 17
M  V30 17 1 15 18 CFG=3
M  V30 18 2 17 19
M  V30 19 1 18 20
M  V30 20 1 19 21
M  V30 21 1 6 9 CFG=1
M  V30 22 1 13 12 CFG=1
M  V30 23 1 16 17
M  V30 24 1 20 21
M  V30 END BOND
M  V30 BEGIN COLLECTION
M  V30 MDLV30/STERAC1 ATOMS=(6 2 3 6 11 13 15)
M  V30 END COLLECTION
M  V30 END CTAB
M  END
>  <Molecule Name>


>  <status>
DISCONTINUED

>  <cas>
965-90-2

>  <name>
ETHYLESTRENOL

>  <ID>
336

>  <Smiles>
CC[C@](CC1)([C@@](C)(CC2)[C@@H]1[C@H](CC1)[C@H]2[C@@H]2C1=CCCC2)O

$$$$
_c001
Actelion Java MolfileCreator 2.0

  0  0  0  0  0  0              0 V3000
M  V30 BEGIN CTAB
M  V30 COUNTS 60 68 0 0 0
M  V30 BEGIN ATOM
M  V30 1 O 11.1981 2.902 0.0 0
M  V30 2 C 10.1892 4.0959 0.0 0
M  V30 3 O 8.5533 3.6547 0.0 0
M  V30 4 C 10.5513 5.426 0.0 0 CFG=2
M  V30 5 C 8.2084 2.2319 0.0 0
M  V30 6 C 9.1229 4.9618 0.0 0
M  V30 7 C 11.476 4.2424 0.0 0
M  V30 8 C 10.6038 6.927 0.0 0
M  V30 9 C 7.9476 6.0916 0.0 0
M  V30 10 C 8.8811 3.3681 0.0 0
M  V30 11 N 12.8481 3.6316 0.0 0
M  V30 12 C 10.341 3.0164 0.0 0
M  V30 13 C 9.0583 7.0475 0.0 0 CFG=2
M  V30 14 O 8.2575 7.382 0.0 0
M  V30 15 C 6.5168 5.4488 0.0 0
M  V30 16 C 7.3823 3.0286 0.0 0
M  V30 17 C 12.6911 2.1379 0.0 0
M  V30 18 C 11.222 1.8256 0.0 0
M  V30 19 C 9.2581 4.0052 0.0 0
M  V30 20 C 8.7512 5.7947 0.0 0
M  V30 21 C 7.8857 8.2149 0.0 0
M  V30 22 C 9.7475 7.9 0.0 0
M  V30 23 C 6.2661 4.0336 0.0 0
M  V30 24 C 6.7714 1.6566 0.0 0 CFG=2
M  V30 25 C 13.6961 1.0217 0.0 0
M  V30 26 C 10.7579 0.3972 0.0 0
M  V30 27 C 7.6983 3.7653 0.0 0
M  V30 28 N 7.3177 5.1143 0.0 0
M  V30 29 C 6.4573 7.7508 0.0 0 CFG=2
M  V30 30 N 4.9654 3.2827 0.0 0
M  V30 31 C 5.2777 1.8136 0.0 0 CFG=2
M  V30 32 C 6.1605 0.2845 0.0 0 CFG=2
M  V30 33 C 8.2657 1.4914 0.0 0
M  V30 34 C 13.2319 -0.4066 0.0 0
M  V30 35 C 11.7629 -0.7188 0.0 0
M  V30 36 C 6.145 6.2817 0.0 0
M  V30 37 O 5.0289 7.2867 0.0 0
M  V30 38 C 5.3412 8.7558 0.0 0
M  V30 39 C 3.6209 3.8922 0.0 0
M  V30 40 C 3.902 1.5019 0.0 0 CFG=2
M  V30 41 N 7.2766 -0.7204 0.0 0
M  V30 42 C 5.2027 -0.7509 0.0 0 CFG=1
M  V30 43 C 8.5773 0.0305 0.0 0
M  V30 44 C 5.6534 10.2249 0.0 0
M  V30 45 O 3.4364 5.3872 0.0 0
M  V30 46 O 4.2043 2.8901 0.0 0
M  V30 47 C 2.7285 2.4392 0.0 0
M  V30 48 C 3.902 0.0 0.0 0 CFG=2
M  V30 49 C 7.5569 -2.1151 0.0 0
M  V30 50 C 4.9563 -2.1794 0.0 0
M  V30 51 C 3.8427 -1.3882 0.0 0
M  V30 52 O 1.33 1.8916 0.0 0
M  V30 53 O 2.8984 3.9268 0.0 0
M  V30 54 O 2.6013 -0.7509 0.0 0
M  V30 55 C 6.2752 -2.898 0.0 0
M  V30 56 C 3.9 -2.5635 0.0 0
M  V30 57 C 1.7801 4.8615 0.0 0
M  V30 58 C 2.6013 -2.2528 0.0 0
M  V30 59 O 3.9028 -3.1591 0.0 0
M  V30 60 C 1.3006 -3.0038 0.0 0
M  V30 END ATOM
M  V30 BEGIN BOND
M  V30 1 2 1 2
M  V30 2 1 2 3
M  V30 3 1 4 2 CFG=1
M  V30 4 1 3 5
M  V30 5 1 4 6
M  V30 6 1 4 7
M  V30 7 1 4 8
M  V30 8 2 6 9
M  V30 9 1 6 10
M  V30 10 1 7 11
M  V30 11 2 7 12
M  V30 12 1 13 8 CFG=3
M  V30 13 1 9 14
M  V30 14 1 9 15
M  V30 15 2 10 16
M  V30 16 1 11 17
M  V30 17 1 12 18
M  V30 18 1 12 19
M  V30 19 1 13 20
M  V30 20 1 13 21
M  V30 21 1 14 22
M  V30 22 2 15 23
M  V30 23 1 24 16
M  V30 24 1 17 25
M  V30 25 1 18 26
M  V30 26 1 19 27
M  V30 27 1 20 28
M  V30 28 1 29 21
M  V30 29 1 23 30
M  V30 30 1 31 24
M  V30 31 1 24 32 CFG=1
M  V30 32 1 24 33
M  V30 33 2 25 34
M  V30 34 2 26 35
M  V30 35 1 28 36
M  V30 36 1 29 37 CFG=3
M  V30 37 1 29 38
M  V30 38 1 30 39
M  V30 39 1 40 31
M  V30 40 1 32 41 CFG=3
M  V30 41 1 42 32
M  V30 42 1 33 43
M  V30 43 1 38 44
M  V30 44 2 39 45
M  V30 45 1 40 46 CFG=3
M  V30 46 1 40 47
M  V30 47 1 48 40
M  V30 48 1 41 49
M  V30 49 1 42 50
M  V30 50 1 42 51 CFG=1
M  V30 51 2 47 52
M  V30 52 1 47 53
M  V30 53 1 48 54 CFG=3
M  V30 54 1 49 55
M  V30 55 1 51 56
M  V30 56 1 53 57
M  V30 57 1 54 58
M  V30 58 2 58 59
M  V30 59 1 58 60
M  V30 60 1 16 23
M  V30 61 2 17 18
M  V30 62 1 27 28
M  V30 63 1 29 36
M  V30 64 1 31 30 CFG=1
M  V30 65 1 34 35
M  V30 66 1 41 43
M  V30 67 1 42 48
M  V30 68 2 50 55
M  V30 END BOND
M  V30 BEGIN COLLECTION
M  V30 MDLV30/STERAC1 ATOMS=(9 4 13 24 29 31 32 40 42 48)
M  V30 END COLLECTION
M  V30 END CTAB
M  END
>  <Molecule Name>
_c001

>  <status>
-

>  <cas>
57-22-7

>  <name>
VINCRISTINE

>  <ID>
337

>  <Smiles>
CC[C@@](C[C@@H](C1)C[C@@]2(C(OC)=O)c(cc([C@@](CC3)([C@@H]4N3CC=C[C@]4(CC)[C@@H]([C@]3(C(OC)=O)O)OC(C)=O)[C@@H]3N3C=O)c3c3)c3OC)(CN1CCc1c2[nH]c2c1cccc2)O

$$$$

Actelion Java MolfileCreator 2.0

  0  0  0  0  0  0              0 V3000
M  V30 BEGIN CTAB
M  V30 COUNTS 10 10 0 0 0
M  V30 BEGIN ATOM
M  V30 1 O 2.598 -2.25 0.0 0
M  V30 2 N 2.598 -0.75 0.0 0
M  V30 3 C 1.299 0.0 0.0 0
M  V30 4 C 0.0 -0.75 0.0 0
M  V30 5 N -1.299 0.0 0.0 0 CHG=1
M  V30 6 C 0.0 -2.25 0.0 0
M  V30 7 C -2.598 -0.7499 0.0 0
M  V30 8 C -1.299 1.5 0.0 0
M  V30 9 C -1.299 -2.9999 0.0 0
M  V30 10 C -2.598 -2.2499 0.0 0
M  V30 END ATOM
M  V30 BEGIN BOND
M  V30 1 1 1 2
M  V30 2 2 2 3
M  V30 3 1 3 4
M  V30 4 2 4 5
M  V30 5 1 4 6
M  V30 6 1 5 7
M  V30 7 1 5 8
M  V30 8 2 6 9
M  V30 9 2 7 10
M  V30 10 1 9 10
M  V30 END BOND
M  V30 END CTAB
M  END
>  <Molecule Name>


>  <status>
-

>  <cas>
6735-59-7

>  <name>
PRALIDOXIME

>  <ID>
338

>  <Smiles>
C[n+]1c(/C=N\O)cccc1

$$$$

Actelion Java MolfileCreator 2.0

  0  0  0  0  0  0              0 V3000
M  V30 BEGIN CTAB
M  V30 COUNTS 17 18 0 0 0
M  V30 BEGIN ATOM
M  V30 1 O 2.598 1.0 0.0 0
M  V30 2 C 2.598 0.0 0.0 0
M  V30 3 C 1.732 -0.5 0.0 0
M  V30 4 C 3.4641 -0.4999 0.0 0
M  V30 5 C 0.866 0.0 0.0 0
M  V30 6 C 1.732 -1.5 0.0 0
M  V30 7 C 3.4641 -1.4999 0.0 0
M  V30 8 C 4.3301 0.0 0.0 0
M  V30 9 O 0.866 1.0 0.0 0
M  V30 10 O 0.0 -0.5 0.0 0 CHG=-1
M  V30 11 N 2.598 -1.9999 0.0 0
M  V30 12 N 4.3301 -1.9999 0.0 0
M  V30 13 C 5.1961 -0.4999 0.0 0
M  V30 14 C 2.598 -2.9999 0.0 0
M  V30 15 C 5.1961 -1.4999 0.0 0
M  V30 16 C 3.4641 -3.4999 0.0 0
M  V30 17 C 6.0621 -1.9999 0.0 0
M  V30 END ATOM
M  V30 BEGIN BOND
M  V30 1 2 1 2
M  V30 2 1 2 3
M  V30 3 1 2 4
M  V30 4 1 3 5
M  V30 5 2 3 6
M  V30 6 2 4 7
M  V30 7 1 4 8
M  V30 8 2 5 9
M  V30 9 1 5 10
M  V30 10 1 6 11
M  V30 11 1 7 12
M  V30 12 2 8 13
M  V30 13 1 11 14
M  V30 14 2 12 15
M  V30 15 1 14 16
M  V30 16 1 15 17
M  V30 17 1 7 11
M  V30 18 1 13 15
M  V30 END BOND
M  V30 END CTAB
M  END
>  <Molecule Name>


>  <status>
DISCONTINUED

>  <cas>
389-08-2

>  <name>
NALIDIXIC ACID

>  <ID>
339

>  <Smiles>
CCN(C=C1C([O-])=O)c(nc(C)cc2)c2C1=O

$$$$
_c001
Actelion Java MolfileCreator 2.0

  0  0  0  0  0  0              0 V3000
M  V30 BEGIN CTAB
M  V30 COUNTS 43 43 0 0 0
M  V30 BEGIN ATOM
M  V30 1 O 23.3826 0.0 0.0 0
M  V30 2 C 24.2487 -0.5 0.0 0
M  V30 3 C 22.5166 -0.5 0.0 0
M  V30 4 C 24.2487 -1.5 0.0 0
M  V30 5 C 25.1147 0.0 0.0 0
M  V30 6 C 21.6506 0.0 0.0 0
M  V30 7 C 25.1147 -1.9999 0.0 0
M  V30 8 C 25.9807 -0.4999 0.0 0
M  V30 9 O 20.7846 -0.5 0.0 0
M  V30 10 C 25.9807 -1.4999 0.0 0
M  V30 11 C 19.9185 0.0 0.0 0
M  V30 12 C 26.8467 -1.9999 0.0 0
M  V30 13 C 19.0525 -0.5 0.0 0
M  V30 14 C 26.8467 -3.0 0.0 0
M  V30 15 O 18.1865 0.0 0.0 0
M  V30 16 C 27.7128 -3.4999 0.0 0
M  V30 17 C 17.3205 -0.5 0.0 0
M  V30 18 C 27.7128 -4.4999 0.0 0
M  V30 19 C 16.4544 0.0 0.0 0
M  V30 20 C 28.5788 -5.0 0.0 0
M  V30 21 O 15.5884 -0.5 0.0 0
M  V30 22 C 28.5788 -6.0 0.0 0
M  V30 23 C 14.7224 0.0 0.0 0
M  V30 24 C 29.4448 -6.4999 0.0 0
M  V30 25 C 13.8564 -0.5 0.0 0
M  V30 26 C 29.4448 -7.5 0.0 0
M  V30 27 O 12.9903 0.0 0.0 0
M  V30 28 C 30.3108 -8.0 0.0 0
M  V30 29 C 12.1243 -0.5 0.0 0
M  V30 30 C 11.2583 0.0 0.0 0
M  V30 31 O 10.3923 -0.5 0.0 0
M  V30 32 C 9.5262 0.0 0.0 0
M  V30 33 C 8.6602 -0.5 0.0 0
M  V30 34 O 7.7942 0.0 0.0 0
M  V30 35 C 6.9282 -0.5 0.0 0
M  V30 36 C 6.0621 0.0 0.0 0
M  V30 37 O 5.1961 -0.5 0.0 0
M  V30 38 C 4.3301 0.0 0.0 0
M  V30 39 C 3.4641 -0.5 0.0 0
M  V30 40 O 2.598 0.0 0.0 0
M  V30 41 C 1.732 -0.5 0.0 0
M  V30 42 C 0.866 0.0 0.0 0
M  V30 43 O 0.0 -0.5 0.0 0
M  V30 END ATOM
M  V30 BEGIN BOND
M  V30 1 1 1 2
M  V30 2 1 1 3
M  V30 3 2 2 4
M  V30 4 1 2 5
M  V30 5 1 3 6
M  V30 6 1 4 7
M  V30 7 2 5 8
M  V30 8 1 6 9
M  V30 9 2 7 10
M  V30 10 1 9 11
M  V30 11 1 10 12
M  V30 12 1 11 13
M  V30 13 1 12 14
M  V30 14 1 13 15
M  V30 15 1 14 16
M  V30 16 1 15 17
M  V30 17 1 16 18
M  V30 18 1 17 19
M  V30 19 1 18 20
M  V30 20 1 19 21
M  V30 21 1 20 22
M  V30 22 1 21 23
M  V30 23 1 22 24
M  V30 24 1 23 25
M  V30 25 1 24 26
M  V30 26 1 25 27
M  V30 27 1 26 28
M  V30 28 1 27 29
M  V30 29 1 29 30
M  V30 30 1 30 31
M  V30 31 1 31 32
M  V30 32 1 32 33
M  V30 33 1 33 34
M  V30 34 1 34 35
M  V30 35 1 35 36
M  V30 36 1 36 37
M  V30 37 1 37 38
M  V30 38 1 38 39
M  V30 39 1 39 40
M  V30 40 1 40 41
M  V30 41 1 41 42
M  V30 42 1 42 43
M  V30 43 1 8 10
M  V30 END BOND
M  V30 END CTAB
M  END
>  <Molecule Name>
_c001

>  <status>
DISCONTINUED

>  <cas>
26027-38-3

>  <name>
NONOXYNOL-9

>  <ID>
340

>  <Smiles>
CCCCCCCCCc(cc1)ccc1OCCOCCOCCOCCOCCOCCOCCOCCOCCO

$$$$

Actelion Java MolfileCreator 2.0

  0  0  0  0  0  0              0 V3000
M  V30 BEGIN CTAB
M  V30 COUNTS 20 22 0 0 0
M  V30 BEGIN ATOM
M  V30 1 N 5.1961 -0.75 0.0 0
M  V30 2 C 3.8971 0.0 0.0 0
M  V30 3 C 6.4951 0.0 0.0 0
M  V30 4 C 2.598 -0.75 0.0 0
M  V30 5 C 1.299 0.0 0.0 0
M  V30 6 C 0.0 -0.75 0.0 0
M  V30 7 C 0.112 -2.2458 0.0 0
M  V30 8 C -1.2393 0.0949 0.0 0
M  V30 9 C -0.9874 -3.266 0.0 0
M  V30 10 C 1.5454 -2.6879 0.0 0
M  V30 11 C -2.6727 -0.3471 0.0 0
M  V30 12 C -0.9055 1.5573 0.0 0
M  V30 13 C -0.6537 -4.7284 0.0 0
M  V30 14 C -2.4707 -3.0425 0.0 0
M  V30 15 C 1.8792 -4.1503 0.0 0
M  V30 16 C -3.7722 0.6731 0.0 0
M  V30 17 C -3.2207 -1.7434 0.0 0
M  V30 18 C -2.0051 2.5776 0.0 0
M  V30 19 C 0.7796 -5.1705 0.0 0
M  V30 20 C -3.4385 2.1354 0.0 0
M  V30 END ATOM
M  V30 BEGIN BOND
M  V30 1 1 1 2
M  V30 2 1 1 3
M  V30 3 1 2 4
M  V30 4 1 4 5
M  V30 5 2 5 6
M  V30 6 1 6 7
M  V30 7 1 6 8
M  V30 8 2 7 9
M  V30 9 1 7 10
M  V30 10 2 8 11
M  V30 11 1 8 12
M  V30 12 1 9 13
M  V30 13 1 9 14
M  V30 14 2 10 15
M  V30 15 1 11 16
M  V30 16 1 11 17
M  V30 17 2 12 18
M  V30 18 2 13 19
M  V30 19 2 16 20
M  V30 20 1 14 17
M  V30 21 1 15 19
M  V30 22 1 18 20
M  V30 END BOND
M  V30 END CTAB
M  END
>  <Molecule Name>


>  <status>
-

>  <cas>
72-69-5

>  <name>
NORTRIPTYLINE

>  <ID>
341

>  <Smiles>
CNCCC=C(c1c(CC2)cccc1)c1c2cccc1

$$$$

Actelion Java MolfileCreator 2.0

  0  0  0  0  0  0              0 V3000
M  V30 BEGIN CTAB
M  V30 COUNTS 19 19 0 0 0
M  V30 BEGIN ATOM
M  V30 1 Cl 7.7942 -0.75 0.0 0
M  V30 2 C 6.4951 0.0 0.0 0
M  V30 3 C 5.1961 -0.75 0.0 0
M  V30 4 N 3.8971 0.0 0.0 0
M  V30 5 C 3.8971 1.5 0.0 0
M  V30 6 C 2.598 -0.75 0.0 0
M  V30 7 C 5.1961 2.25 0.0 0
M  V30 8 C 2.598 2.25 0.0 0
M  V30 9 C 1.299 0.0 0.0 0
M  V30 10 C 5.1961 3.75 0.0 0
M  V30 11 C 2.598 3.75 0.0 0
M  V30 12 Cl 0.0 -0.75 0.0 0
M  V30 13 C 3.8971 4.5 0.0 0
M  V30 14 C 3.8971 6.0 0.0 0
M  V30 15 C 2.598 6.75 0.0 0 CFG=2
M  V30 16 N 1.299 6.0 0.0 0
M  V30 17 C 2.598 8.25 0.0 0
M  V30 18 O 3.8971 9.0 0.0 0
M  V30 19 O 1.299 9.0 0.0 0 CHG=-1
M  V30 END ATOM
M  V30 BEGIN BOND
M  V30 1 1 1 2
M  V30 2 1 2 3
M  V30 3 1 3 4
M  V30 4 1 4 5
M  V30 5 1 4 6
M  V30 6 2 5 7
M  V30 7 1 5 8
M  V30 8 1 6 9
M  V30 9 1 7 10
M  V30 10 2 8 11
M  V30 11 1 9 12
M  V30 12 2 10 13
M  V30 13 1 13 14
M  V30 14 1 15 14
M  V30 15 1 15 16 CFG=3
M  V30 16 1 15 17
M  V30 17 2 17 18
M  V30 18 1 17 19
M  V30 19 1 11 13
M  V30 END BOND
M  V30 BEGIN COLLECTION
M  V30 MDLV30/STERAC1 ATOMS=(1 15)
M  V30 END COLLECTION
M  V30 END CTAB
M  END
>  <Molecule Name>


>  <status>
-

>  <cas>
148-82-3

>  <name>
MELPHALAN

>  <ID>
342

>  <Smiles>
NC(Cc(cc1)ccc1N(CCCl)CCCl)C([O-])=O

$$$$

Actelion Java MolfileCreator 2.0

  0  0  0  0  0  0              0 V3000
M  V30 BEGIN CTAB
M  V30 COUNTS 12 12 0 0 0
M  V30 BEGIN ATOM
M  V30 1 Cl 6.4951 -3.0 0.0 0
M  V30 2 C 5.1961 -2.2499 0.0 0
M  V30 3 C 5.1961 -0.75 0.0 0
M  V30 4 C 3.8971 -2.9999 0.0 0
M  V30 5 C 3.8971 0.0 0.0 0
M  V30 6 C 2.598 -2.25 0.0 0
M  V30 7 C 2.598 -0.75 0.0 0
M  V30 8 C 1.299 0.0 0.0 0
M  V30 9 C 0.0 -0.75 0.0 0
M  V30 10 N 0.7499 -2.049 0.0 0
M  V30 11 C -1.299 -1.4999 0.0 0
M  V30 12 C -0.7499 0.549 0.0 0
M  V30 END ATOM
M  V30 BEGIN BOND
M  V30 1 1 1 2
M  V30 2 2 2 3
M  V30 3 1 2 4
M  V30 4 1 3 5
M  V30 5 2 4 6
M  V30 6 2 5 7
M  V30 7 1 7 8
M  V30 8 1 8 9
M  V30 9 1 9 10
M  V30 10 1 9 11
M  V30 11 1 9 12
M  V30 12 1 6 7
M  V30 END BOND
M  V30 END CTAB
M  END
>  <Molecule Name>


>  <status>
DISCONTINUED

>  <cas>
461-78-9

>  <name>
CHLORPHENTERMINE

>  <ID>
343

>  <Smiles>
CC(C)(Cc(cc1)ccc1Cl)N

$$$$

Actelion Java MolfileCreator 2.0

  0  0  0  0  0  0              0 V3000
M  V30 BEGIN CTAB
M  V30 COUNTS 16 16 0 0 0
M  V30 BEGIN ATOM
M  V30 1 O 4.3301 0.9999 0.0 0
M  V30 2 C 4.3301 0.0 0.0 0
M  V30 3 N 5.1961 -0.5 0.0 0
M  V30 4 C 3.4641 -0.5 0.0 0 CFG=1
M  V30 5 C 6.0621 0.0 0.0 0
M  V30 6 N 2.598 0.0 0.0 0
M  V30 7 C 3.4641 -1.5 0.0 0
M  V30 8 C 6.9282 -0.5 0.0 0
M  V30 9 C 6.0621 0.9999 0.0 0
M  V30 10 C 1.732 -0.5 0.0 0
M  V30 11 C 7.7942 0.0 0.0 0
M  V30 12 C 6.9282 -1.5 0.0 0
M  V30 13 C 6.9282 1.4999 0.0 0
M  V30 14 C 0.866 0.0 0.0 0
M  V30 15 C 7.7942 0.9999 0.0 0
M  V30 16 C 0.0 -0.5 0.0 0
M  V30 END ATOM
M  V30 BEGIN BOND
M  V30 1 2 1 2
M  V30 2 1 2 3
M  V30 3 1 4 2
M  V30 4 1 3 5
M  V30 5 1 4 6 CFG=3
M  V30 6 1 4 7
M  V30 7 2 5 8
M  V30 8 1 5 9
M  V30 9 1 6 10
M  V30 10 1 8 11
M  V30 11 1 8 12
M  V30 12 2 9 13
M  V30 13 1 10 14
M  V30 14 2 11 15
M  V30 15 1 14 16
M  V30 16 1 13 15
M  V30 END BOND
M  V30 BEGIN COLLECTION
M  V30 MDLV30/STERAC1 ATOMS=(1 4)
M  V30 END COLLECTION
M  V30 END CTAB
M  END
>  <Molecule Name>


>  <status>
-

>  <cas>
721-50-6

>  <name>
PRILOCAINE

>  <ID>
344

>  <Smiles>
CCCNC(C)C(Nc1c(C)cccc1)=O

$$$$

Actelion Java MolfileCreator 2.0

  0  0  0  0  0  0              0 V3000
M  V30 BEGIN CTAB
M  V30 COUNTS 28 31 0 0 0
M  V30 BEGIN ATOM
M  V30 1 O 7.881 0.3531 0.0 0
M  V30 2 C 6.3665 0.5122 0.0 0
M  V30 3 N 5.6051 1.831 0.0 0
M  V30 4 C 5.3475 -0.6193 0.0 0
M  V30 5 C 4.1155 1.5144 0.0 0
M  V30 6 C 6.2245 3.2222 0.0 0
M  V30 7 C 5.6641 -2.1089 0.0 0
M  V30 8 C 4.1641 -1.5777 0.0 0
M  V30 9 C 3.9564 0.0 0.0 0 CFG=2
M  V30 10 C 5.3294 4.4542 0.0 0
M  V30 11 C 4.8262 -3.2319 0.0 0
M  V30 12 C 7.1124 -2.5795 0.0 0
M  V30 13 C 2.8275 -1.2516 0.0 0
M  V30 14 C 4.2554 -3.0297 0.0 0
M  V30 15 C 2.595 -0.6515 0.0 0
M  V30 16 C 4.8491 -4.6174 0.0 0
M  V30 17 C 7.429 -4.069 0.0 0
M  V30 18 C 1.5589 -1.9903 0.0 0
M  V30 19 C 3.2188 -4.0401 0.0 0
M  V30 20 C 1.3188 0.0 0.0 0
M  V30 21 C 6.2974 -5.088 0.0 0
M  V30 22 C 1.7972 -3.4944 0.0 0
M  V30 23 N 0.0 -0.7614 0.0 0
M  V30 24 C -1.3188 0.0 0.0 0
M  V30 25 C 0.0 -2.2842 0.0 0
M  V30 26 C -2.6376 -0.7614 0.0 0
M  V30 27 C -1.3188 -3.0456 0.0 0
M  V30 28 O -2.6376 -2.2842 0.0 0
M  V30 END ATOM
M  V30 BEGIN BOND
M  V30 1 2 1 2
M  V30 2 1 2 3
M  V30 3 1 2 4
M  V30 4 1 3 5
M  V30 5 1 3 6
M  V30 6 1 4 7
M  V30 7 1 4 8
M  V30 8 1 9 4
M  V30 9 1 6 10
M  V30 10 2 7 11
M  V30 11 1 7 12
M  V30 12 2 8 13
M  V30 13 1 8 14
M  V30 14 1 9 15 CFG=1
M  V30 15 1 11 16
M  V30 16 2 12 17
M  V30 17 1 13 18
M  V30 18 2 14 19
M  V30 19 1 15 20
M  V30 20 2 16 21
M  V30 21 2 18 22
M  V30 22 1 20 23
M  V30 23 1 23 24
M  V30 24 1 23 25
M  V30 25 1 24 26
M  V30 26 1 25 27
M  V30 27 1 26 28
M  V30 28 1 5 9
M  V30 29 1 17 21
M  V30 30 1 19 22
M  V30 31 1 27 28
M  V30 END BOND
M  V30 BEGIN COLLECTION
M  V30 MDLV30/STERAC1 ATOMS=(1 9)
M  V30 END COLLECTION
M  V30 END CTAB
M  END
>  <Molecule Name>


>  <status>
-

>  <cas>
309-29-5

>  <name>
DOXAPRAM

>  <ID>
345

>  <Smiles>
CCN(CC(CCN1CCOCC1)C1(c2ccccc2)c2ccccc2)C1=O

$$$$

Actelion Java MolfileCreator 2.0

  0  0  0  0  0  0              0 V3000
M  V30 BEGIN CTAB
M  V30 COUNTS 18 19 0 0 0
M  V30 BEGIN ATOM
M  V30 1 O 1.732 -0.5 0.0 0
M  V30 2 C 0.866 0.0 0.0 0
M  V30 3 O 0.866 1.0 0.0 0 CHG=-1
M  V30 4 C 0.0 -0.5 0.0 0
M  V30 5 C -0.866 0.0 0.0 0
M  V30 6 C 0.0 -1.4999 0.0 0
M  V30 7 N -0.866 1.0 0.0 0
M  V30 8 C -1.732 -0.4999 0.0 0
M  V30 9 C -0.866 -1.9999 0.0 0
M  V30 10 C -1.732 1.5 0.0 0
M  V30 11 C -1.732 -1.4999 0.0 0
M  V30 12 C -1.732 2.5 0.0 0
M  V30 13 C -2.598 1.0 0.0 0
M  V30 14 C -2.598 3.0 0.0 0
M  V30 15 C -0.866 3.0 0.0 0
M  V30 16 C -3.4641 1.5 0.0 0
M  V30 17 C -3.4641 2.5 0.0 0
M  V30 18 C -2.598 4.0 0.0 0
M  V30 END ATOM
M  V30 BEGIN BOND
M  V30 1 2 1 2
M  V30 2 1 2 3
M  V30 3 1 2 4
M  V30 4 2 4 5
M  V30 5 1 4 6
M  V30 6 1 5 7
M  V30 7 1 5 8
M  V30 8 2 6 9
M  V30 9 1 7 10
M  V30 10 2 8 11
M  V30 11 2 10 12
M  V30 12 1 10 13
M  V30 13 1 12 14
M  V30 14 1 12 15
M  V30 15 2 13 16
M  V30 16 2 14 17
M  V30 17 1 14 18
M  V30 18 1 9 11
M  V30 19 1 16 17
M  V30 END BOND
M  V30 END CTAB
M  END
>  <Molecule Name>


>  <status>
-

>  <cas>
61-68-7

>  <name>
MEFENAMIC ACID

>  <ID>
346

>  <Smiles>
Cc1cccc(Nc(cccc2)c2C([O-])=O)c1C

$$$$

Actelion Java MolfileCreator 2.0

  0  0  0  0  0  0              0 V3000
M  V30 BEGIN CTAB
M  V30 COUNTS 9 8 0 0 0
M  V30 BEGIN ATOM
M  V30 1 O 6.0621 0.0 0.0 0
M  V30 2 C 5.1961 -0.5 0.0 0
M  V30 3 O 5.1961 -1.4999 0.0 0 CHG=-1
M  V30 4 C 4.3301 0.0 0.0 0
M  V30 5 C 3.4641 -0.5 0.0 0
M  V30 6 C 2.598 0.0 0.0 0
M  V30 7 C 1.732 -0.5 0.0 0
M  V30 8 C 0.866 0.0 0.0 0
M  V30 9 N 0.0 -0.5 0.0 0
M  V30 END ATOM
M  V30 BEGIN BOND
M  V30 1 2 1 2
M  V30 2 1 2 3
M  V30 3 1 2 4
M  V30 4 1 4 5
M  V30 5 1 5 6
M  V30 6 1 6 7
M  V30 7 1 7 8
M  V30 8 1 8 9
M  V30 END BOND
M  V30 END CTAB
M  END
>  <Molecule Name>


>  <status>
-

>  <cas>
60-32-2

>  <name>
AMINOCAPROIC ACID

>  <ID>
347

>  <Smiles>
NCCCCCC([O-])=O

$$$$

Actelion Java MolfileCreator 2.0

  0  0  0  0  0  0              0 V3000
M  V30 BEGIN CTAB
M  V30 COUNTS 21 22 0 0 0
M  V30 BEGIN ATOM
M  V30 1 S 5.1961 -0.75 0.0 0
M  V30 2 O 4.4461 -2.049 0.0 0
M  V30 3 O 5.9461 -2.049 0.0 0
M  V30 4 N 3.8971 0.0 0.0 0
M  V30 5 C 6.4952 0.0 0.0 0
M  V30 6 C 2.598 -0.75 0.0 0
M  V30 7 C 7.7942 -0.75 0.0 0
M  V30 8 C 6.4952 1.5 0.0 0
M  V30 9 O 2.598 -2.25 0.0 0
M  V30 10 N 1.299 0.0 0.0 0
M  V30 11 C 9.0932 0.0 0.0 0
M  V30 12 C 7.7942 2.25 0.0 0
M  V30 13 N 0.0 -0.75 0.0 0
M  V30 14 C 9.0932 1.5 0.0 0
M  V30 15 C -1.2393 0.0949 0.0 0
M  V30 16 C 0.112 -2.2458 0.0 0
M  V30 17 C 10.3923 2.25 0.0 0
M  V30 18 C -2.6727 -0.3471 0.0 0
M  V30 19 C -0.9874 -3.266 0.0 0
M  V30 20 C -3.2207 -1.7434 0.0 0
M  V30 21 C -2.4707 -3.0425 0.0 0
M  V30 END ATOM
M  V30 BEGIN BOND
M  V30 1 2 1 2
M  V30 2 2 1 3
M  V30 3 1 1 4
M  V30 4 1 1 5
M  V30 5 1 4 6
M  V30 6 2 5 7
M  V30 7 1 5 8
M  V30 8 2 6 9
M  V30 9 1 6 10
M  V30 10 1 7 11
M  V30 11 2 8 12
M  V30 12 1 10 13
M  V30 13 2 11 14
M  V30 14 1 13 15
M  V30 15 1 13 16
M  V30 16 1 14 17
M  V30 17 1 15 18
M  V30 18 1 16 19
M  V30 19 1 18 20
M  V30 20 1 19 21
M  V30 21 1 12 14
M  V30 22 1 20 21
M  V30 END BOND
M  V30 END CTAB
M  END
>  <Molecule Name>


>  <status>
DISCONTINUED

>  <cas>
1156-19-0

>  <name>
TOLAZAMIDE

>  <ID>
348

>  <Smiles>
Cc(cc1)ccc1S(NC(NN1CCCCCC1)=O)(=O)=O

$$$$

Actelion Java MolfileCreator 2.0

  0  0  0  0  0  0              0 V3000
M  V30 BEGIN CTAB
M  V30 COUNTS 20 22 0 0 0
M  V30 BEGIN ATOM
M  V30 1 Cl 0.866 0.0 0.0 0
M  V30 2 C 0.0 -0.5 0.0 0
M  V30 3 C -0.866 0.0 0.0 0
M  V30 4 C 0.0 -1.4999 0.0 0
M  V30 5 C -1.732 -0.4999 0.0 0
M  V30 6 C -0.866 -1.9999 0.0 0
M  V30 7 C -2.5138 0.1234 0.0 0
M  V30 8 C -1.732 -1.4999 0.0 0
M  V30 9 N -3.4888 -0.099 0.0 0
M  V30 10 C -2.2913 1.0984 0.0 0
M  V30 11 N -2.5138 -2.1234 0.0 0
M  V30 12 C -3.9226 -0.9999 0.0 0 CFG=2
M  V30 13 C -1.3357 1.3931 0.0 0
M  V30 14 C -3.0244 1.7785 0.0 0
M  V30 15 C -3.4888 -1.9009 0.0 0
M  V30 16 O -4.9226 -0.9999 0.0 0
M  V30 17 C -1.1132 2.3681 0.0 0
M  V30 18 C -2.8018 2.7535 0.0 0
M  V30 19 O -4.1123 -2.6828 0.0 0
M  V30 20 C -1.8463 3.0482 0.0 0
M  V30 END ATOM
M  V30 BEGIN BOND
M  V30 1 1 1 2
M  V30 2 2 2 3
M  V30 3 1 2 4
M  V30 4 1 3 5
M  V30 5 2 4 6
M  V30 6 1 5 7
M  V30 7 2 5 8
M  V30 8 2 7 9
M  V30 9 1 7 10
M  V30 10 1 8 11
M  V30 11 1 12 9
M  V30 12 2 10 13
M  V30 13 1 10 14
M  V30 14 1 11 15
M  V30 15 1 12 16 CFG=3
M  V30 16 1 13 17
M  V30 17 2 14 18
M  V30 18 2 15 19
M  V30 19 2 17 20
M  V30 20 1 6 8
M  V30 21 1 12 15
M  V30 22 1 18 20
M  V30 END BOND
M  V30 BEGIN COLLECTION
M  V30 MDLV30/STERAC1 ATOMS=(1 12)
M  V30 END COLLECTION
M  V30 END CTAB
M  END
>  <Molecule Name>


>  <status>
-

>  <cas>
604-75-1

>  <name>
OXAZEPAM

>  <ID>
349

>  <Smiles>
OC1N=C(c2ccccc2)c(cc(cc2)Cl)c2NC1=O

$$$$

Actelion Java MolfileCreator 2.0

  0  0  0  0  0  0              0 V3000
M  V30 BEGIN CTAB
M  V30 COUNTS 26 28 0 0 0
M  V30 BEGIN ATOM
M  V30 1 Cl 14.2894 4.4999 0.0 0
M  V30 2 C 12.9903 3.7499 0.0 0
M  V30 3 C 11.6913 4.5 0.0 0
M  V30 4 C 12.9903 2.2499 0.0 0
M  V30 5 C 10.3923 3.75 0.0 0
M  V30 6 C 11.6913 1.5 0.0 0
M  V30 7 C 10.3923 2.2499 0.0 0
M  V30 8 C 9.0932 1.4999 0.0 0
M  V30 9 O 9.0932 2.9999 0.0 0
M  V30 10 C 7.7942 2.2499 0.0 0
M  V30 11 C 9.0932 0.0 0.0 0
M  V30 12 C 6.4951 1.5 0.0 0
M  V30 13 C 7.7942 -0.75 0.0 0
M  V30 14 N 6.4951 0.0 0.0 0
M  V30 15 C 5.1961 -0.75 0.0 0
M  V30 16 C 3.8971 0.0 0.0 0
M  V30 17 C 2.598 -0.75 0.0 0
M  V30 18 C 1.299 0.0 0.0 0
M  V30 19 O 1.299 1.5 0.0 0
M  V30 20 C 0.0 -0.75 0.0 0
M  V30 21 C -1.299 0.0 0.0 0
M  V30 22 C 0.0 -2.2499 0.0 0
M  V30 23 C -2.598 -0.7499 0.0 0
M  V30 24 C -1.299 -2.9999 0.0 0
M  V30 25 C -2.598 -2.2499 0.0 0
M  V30 26 F -3.8971 -2.9999 0.0 0
M  V30 END ATOM
M  V30 BEGIN BOND
M  V30 1 1 1 2
M  V30 2 2 2 3
M  V30 3 1 2 4
M  V30 4 1 3 5
M  V30 5 2 4 6
M  V30 6 2 5 7
M  V30 7 1 7 8
M  V30 8 1 8 9
M  V30 9 1 8 10
M  V30 10 1 8 11
M  V30 11 1 10 12
M  V30 12 1 11 13
M  V30 13 1 12 14
M  V30 14 1 14 15
M  V30 15 1 15 16
M  V30 16 1 16 17
M  V30 17 1 17 18
M  V30 18 2 18 19
M  V30 19 1 18 20
M  V30 20 2 20 21
M  V30 21 1 20 22
M  V30 22 1 21 23
M  V30 23 2 22 24
M  V30 24 2 23 25
M  V30 25 1 25 26
M  V30 26 1 6 7
M  V30 27 1 13 14
M  V30 28 1 24 25
M  V30 END BOND
M  V30 END CTAB
M  END
>  <Molecule Name>


>  <status>
-

>  <cas>
52-86-8

>  <name>
HALOPERIDOL

>  <ID>
350

>  <Smiles>
OC1(CCN(CCCC(c(cc2)ccc2F)=O)CC1)c(cc1)ccc1Cl

$$$$
_c001
Actelion Java MolfileCreator 2.0

  0  0  0  0  0  0              0 V3000
M  V30 BEGIN CTAB
M  V30 COUNTS 19 20 0 0 0
M  V30 BEGIN ATOM
M  V30 1 S 2.598 -0.75 0.0 0
M  V30 2 O 1.848 -2.049 0.0 0
M  V30 3 O 3.348 -2.049 0.0 0
M  V30 4 N 1.299 0.0 0.0 0
M  V30 5 C 3.8971 0.0 0.0 0
M  V30 6 C 0.0 -0.75 0.0 0
M  V30 7 C 5.1961 -0.75 0.0 0
M  V30 8 C 3.8971 1.5 0.0 0
M  V30 9 N -1.299 0.0 0.0 0
M  V30 10 N 0.0 -2.25 0.0 0
M  V30 11 C 6.4952 0.0 0.0 0
M  V30 12 C 5.1961 2.25 0.0 0
M  V30 13 C -2.598 -0.75 0.0 0
M  V30 14 C -1.299 -3.0 0.0 0
M  V30 15 C 6.4952 1.5 0.0 0
M  V30 16 C -2.598 -2.25 0.0 0
M  V30 17 N 7.7942 2.25 0.0 0
M  V30 18 O -3.8971 -3.0 0.0 0
M  V30 19 C -3.8971 -4.5 0.0 0
M  V30 END ATOM
M  V30 BEGIN BOND
M  V30 1 2 1 2
M  V30 2 2 1 3
M  V30 3 1 1 4
M  V30 4 1 1 5
M  V30 5 1 4 6
M  V30 6 2 5 7
M  V30 7 1 5 8
M  V30 8 2 6 9
M  V30 9 1 6 10
M  V30 10 1 7 11
M  V30 11 2 8 12
M  V30 12 1 9 13
M  V30 13 2 10 14
M  V30 14 2 11 15
M  V30 15 2 13 16
M  V30 16 1 15 17
M  V30 17 1 16 18
M  V30 18 1 18 19
M  V30 19 1 12 15
M  V30 20 1 14 16
M  V30 END BOND
M  V30 END CTAB
M  END
>  <Molecule Name>
_c001

>  <status>
DISCONTINUED

>  <cas>
651-06-9

>  <name>
SULFAMETER

>  <ID>
351

>  <Smiles>
COc1cnc(NS(c(cc2)ccc2N)(=O)=O)nc1

$$$$

Actelion Java MolfileCreator 2.0

  0  0  0  0  0  0              0 V3000
M  V30 BEGIN CTAB
M  V30 COUNTS 20 22 0 0 0
M  V30 BEGIN ATOM
M  V30 1 N 5.1961 -0.75 0.0 0
M  V30 2 C 3.8971 0.0 0.0 0
M  V30 3 C 6.4951 0.0 0.0 0
M  V30 4 C 2.598 -0.75 0.0 0
M  V30 5 C 1.299 0.0 0.0 0
M  V30 6 C 0.0 -0.75 0.0 0
M  V30 7 C 0.112 -2.2458 0.0 0
M  V30 8 C -1.2393 0.0949 0.0 0
M  V30 9 C -0.9874 -3.266 0.0 0
M  V30 10 C 1.5454 -2.6879 0.0 0
M  V30 11 C -2.6727 -0.3471 0.0 0
M  V30 12 C -0.9055 1.5573 0.0 0
M  V30 13 C -2.4707 -3.0425 0.0 0
M  V30 14 C -0.6537 -4.7284 0.0 0
M  V30 15 C 1.8792 -4.1503 0.0 0
M  V30 16 C -3.2207 -1.7434 0.0 0
M  V30 17 C -3.7722 0.6731 0.0 0
M  V30 18 C -2.0051 2.5776 0.0 0
M  V30 19 C 0.7796 -5.1705 0.0 0
M  V30 20 C -3.4385 2.1354 0.0 0
M  V30 END ATOM
M  V30 BEGIN BOND
M  V30 1 1 1 2
M  V30 2 1 1 3
M  V30 3 1 2 4
M  V30 4 1 4 5
M  V30 5 1 5 6
M  V30 6 1 6 7
M  V30 7 1 6 8
M  V30 8 2 7 9
M  V30 9 1 7 10
M  V30 10 2 8 11
M  V30 11 1 8 12
M  V30 12 1 9 13
M  V30 13 1 9 14
M  V30 14 2 10 15
M  V30 15 1 11 16
M  V30 16 1 11 17
M  V30 17 2 12 18
M  V30 18 2 14 19
M  V30 19 2 17 20
M  V30 20 2 13 16
M  V30 21 1 15 19
M  V30 22 1 18 20
M  V30 END BOND
M  V30 END CTAB
M  END
>  <Molecule Name>


>  <status>
-

>  <cas>
438-60-8

>  <name>
PROTRIPTYLINE

>  <ID>
352

>  <Smiles>
CNCCCC1c(cccc2)c2C=Cc2c1cccc2

$$$$

Actelion Java MolfileCreator 2.0

  0  0  0  0  0  0              0 V3000
M  V30 BEGIN CTAB
M  V30 COUNTS 11 13 0 0 0
M  V30 BEGIN ATOM
M  V30 1 N 0.9297 -0.3185 0.0 0
M  V30 2 C 0.0 0.0 0.0 0
M  V30 3 C 0.0172 1.0847 0.0 0
M  V30 4 C -0.7406 -0.2764 0.0 0
M  V30 5 C -0.5768 -0.749 0.0 0
M  V30 6 C -0.9986 1.4291 0.0 0 CFG=1
M  V30 7 C -1.9199 0.0655 0.0 0 CFG=2
M  V30 8 C -1.5588 -0.4611 0.0 0 CFG=1
M  V30 9 C -1.8677 1.1055 0.0 0
M  V30 10 C -1.461 0.7879 0.0 0
M  V30 11 C -2.4708 -0.7059 0.0 0
M  V30 END ATOM
M  V30 BEGIN BOND
M  V30 1 1 1 2
M  V30 2 1 2 3
M  V30 3 1 2 4
M  V30 4 1 2 5
M  V30 5 1 6 3 CFG=3
M  V30 6 1 7 4 CFG=1
M  V30 7 1 8 5 CFG=3
M  V30 8 1 6 9
M  V30 9 1 6 10
M  V30 10 1 7 11
M  V30 11 1 7 9
M  V30 12 1 8 10
M  V30 13 1 8 11
M  V30 END BOND
M  V30 BEGIN COLLECTION
M  V30 MDLV30/STEABS ATOMS=(3 6 7 8)
M  V30 END COLLECTION
M  V30 END CTAB
M  END
>  <Molecule Name>


>  <status>
-

>  <cas>
768-94-5

>  <name>
AMANTADINE

>  <ID>
353

>  <Smiles>
NC1(C[C@H](C2)C3)C[C@H]3C[C@H]2C1

$$$$

Actelion Java MolfileCreator 2.0

  0  0  0  0  0  0              0 V3000
M  V30 BEGIN CTAB
M  V30 COUNTS 28 31 0 0 0
M  V30 BEGIN ATOM
M  V30 1 O 1.732 1.4999 0.0 0
M  V30 2 C 0.9061 0.9567 0.0 0
M  V30 3 O 0.816 -0.1737 0.0 0
M  V30 4 C 0.0 1.5 0.0 0
M  V30 5 C 0.0 -0.5 0.0 0 CFG=2
M  V30 6 C 0.8386 -1.0446 0.0 0
M  V30 7 C -0.0523 0.4986 0.0 0 CFG=2
M  V30 8 C -0.9335 -0.8583 0.0 0
M  V30 9 C 1.6773 -1.5892 0.0 0
M  V30 10 C -1.0182 0.7574 0.0 0 CFG=1
M  V30 11 C 0.6414 1.3151 0.0 0
M  V30 12 C 0.9042 0.133 0.0 0
M  V30 13 C -1.5629 -0.0812 0.0 0
M  V30 14 C -1.277 1.7233 0.0 0 CFG=1
M  V30 15 C 0.3959 2.1716 0.0 0
M  V30 16 C -0.5699 2.4304 0.0 0 CFG=2
M  V30 17 C -2.243 1.9821 0.0 0
M  V30 18 C -0.8287 3.3964 0.0 0 CFG=2
M  V30 19 C -2.5018 2.9481 0.0 0
M  V30 20 C -1.7947 3.6552 0.0 0
M  V30 21 C -0.1216 4.1035 0.0 0
M  V30 22 C -2.0535 4.6211 0.0 0
M  V30 23 C -0.3805 5.0694 0.0 0
M  V30 24 C -1.3464 5.3282 0.0 0 CFG=2
M  V30 25 O -1.6052 6.2941 0.0 0
M  V30 26 C -0.8981 7.0012 0.0 0
M  V30 27 O 0.0677 6.7424 0.0 0
M  V30 28 C -1.1569 7.9672 0.0 0
M  V30 END ATOM
M  V30 BEGIN BOND
M  V30 1 2 1 2
M  V30 2 1 2 3
M  V30 3 1 2 4
M  V30 4 1 5 3 CFG=1
M  V30 5 1 5 6
M  V30 6 1 7 5
M  V30 7 1 5 8
M  V30 8 3 6 9
M  V30 9 1 10 7
M  V30 10 1 7 11
M  V30 11 1 7 12 CFG=1
M  V30 12 1 8 13
M  V30 13 1 14 10
M  V30 14 1 11 15
M  V30 15 1 16 14
M  V30 16 1 14 17 CFG=3
M  V30 17 1 18 16
M  V30 18 1 17 19
M  V30 19 1 18 20
M  V30 20 1 18 21 CFG=3
M  V30 21 2 20 22
M  V30 22 1 21 23
M  V30 23 1 24 22
M  V30 24 1 24 25 CFG=1
M  V30 25 1 25 26
M  V30 26 2 26 27
M  V30 27 1 26 28
M  V30 28 1 10 13 CFG=1
M  V30 29 1 16 15 CFG=1
M  V30 30 1 19 20
M  V30 31 1 23 24
M  V30 END BOND
M  V30 BEGIN COLLECTION
M  V30 MDLV30/STERAC1 ATOMS=(7 5 7 10 14 16 18 24)
M  V30 END COLLECTION
M  V30 END CTAB
M  END
>  <Molecule Name>


>  <status>
-

>  <cas>
297-76-7

>  <name>
ETHYNODIOL DIACETATE

>  <ID>
354

>  <Smiles>
C[C@](CC1)([C@@H](CC2)[C@H](CC3)[C@H]1[C@@H](CC1)C3=C[C@H]1OC(C)=O)[C@@]2(C#C)OC(C)=O

$$$$

Actelion Java MolfileCreator 2.0

  0  0  0  0  0  0              0 V3000
M  V30 BEGIN CTAB
M  V30 COUNTS 23 25 0 0 0
M  V30 BEGIN ATOM
M  V30 1 O 4.3301 0.0 0.0 0
M  V30 2 C 3.4641 -0.5 0.0 0
M  V30 3 C 3.4641 -1.5 0.0 0
M  V30 4 C 3.4641 0.5 0.0 0
M  V30 5 C 2.598 0.0 0.0 0
M  V30 6 C 2.598 -2.0 0.0 0
M  V30 7 C 4.3301 -1.9999 0.0 0
M  V30 8 C 4.3301 1.0 0.0 0
M  V30 9 C 2.598 0.9999 0.0 0
M  V30 10 C 1.732 -0.5 0.0 0
M  V30 11 C 2.598 -3.0 0.0 0
M  V30 12 C 4.3301 -2.9999 0.0 0
M  V30 13 C 4.3301 2.0 0.0 0
M  V30 14 C 2.598 1.9999 0.0 0
M  V30 15 C 0.866 0.0 0.0 0
M  V30 16 C 3.4641 -3.4999 0.0 0
M  V30 17 C 3.4641 2.5 0.0 0
M  V30 18 N 0.0 -0.5 0.0 0
M  V30 19 C -0.866 0.0 0.0 0
M  V30 20 C 0.0 -1.4999 0.0 0
M  V30 21 C -1.732 -0.4999 0.0 0
M  V30 22 C -0.866 -1.9999 0.0 0
M  V30 23 C -1.732 -1.4999 0.0 0
M  V30 END ATOM
M  V30 BEGIN BOND
M  V30 1 1 1 2
M  V30 2 1 2 3
M  V30 3 1 2 4
M  V30 4 1 2 5
M  V30 5 2 3 6
M  V30 6 1 3 7
M  V30 7 2 4 8
M  V30 8 1 4 9
M  V30 9 1 5 10
M  V30 10 1 6 11
M  V30 11 2 7 12
M  V30 12 1 8 13
M  V30 13 2 9 14
M  V30 14 1 10 15
M  V30 15 2 11 16
M  V30 16 2 13 17
M  V30 17 1 15 18
M  V30 18 1 18 19
M  V30 19 1 18 20
M  V30 20 1 19 21
M  V30 21 1 20 22
M  V30 22 1 21 23
M  V30 23 1 12 16
M  V30 24 1 14 17
M  V30 25 1 22 23
M  V30 END BOND
M  V30 END CTAB
M  END
>  <Molecule Name>


>  <status>
DISCONTINUED

>  <cas>
972-02-1

>  <name>
DIPHENIDOL

>  <ID>
355

>  <Smiles>
OC(CCCN1CCCCC1)(c1ccccc1)c1ccccc1

$$$$

Actelion Java MolfileCreator 2.0

  0  0  0  0  0  0              0 V3000
M  V30 BEGIN CTAB
M  V30 COUNTS 28 31 0 0 0
M  V30 BEGIN ATOM
M  V30 1 F 6.9282 1.4999 0.0 0
M  V30 2 C 6.0621 0.9999 0.0 0
M  V30 3 C 5.1961 1.4999 0.0 0
M  V30 4 C 6.0621 0.0 0.0 0
M  V30 5 C 4.3301 0.9999 0.0 0
M  V30 6 C 5.1961 -0.5 0.0 0
M  V30 7 C 4.3301 0.0 0.0 0
M  V30 8 C 3.4641 -0.5 0.0 0
M  V30 9 O 3.4641 -1.5 0.0 0
M  V30 10 C 2.598 0.0 0.0 0
M  V30 11 C 1.732 -0.5 0.0 0
M  V30 12 C 0.866 0.0 0.0 0
M  V30 13 N 0.0 -0.5 0.0 0
M  V30 14 C -0.866 0.0 0.0 0
M  V30 15 C 0.0 -1.4999 0.0 0
M  V30 16 C -1.732 -0.4999 0.0 0
M  V30 17 C -0.866 -1.9999 0.0 0
M  V30 18 C -1.732 -1.4999 0.0 0
M  V30 19 N -2.598 -1.9999 0.0 0
M  V30 20 C -3.5116 -1.5932 0.0 0
M  V30 21 C -2.7026 -2.9945 0.0 0
M  V30 22 O -3.7195 -0.6151 0.0 0
M  V30 23 N -4.1807 -2.3364 0.0 0
M  V30 24 C -3.6807 -3.2024 0.0 0
M  V30 25 C -2.0334 -3.7376 0.0 0
M  V30 26 C -3.9897 -4.1534 0.0 0
M  V30 27 C -2.3424 -4.6887 0.0 0
M  V30 28 C -3.3206 -4.8966 0.0 0
M  V30 END ATOM
M  V30 BEGIN BOND
M  V30 1 1 1 2
M  V30 2 2 2 3
M  V30 3 1 2 4
M  V30 4 1 3 5
M  V30 5 2 4 6
M  V30 6 2 5 7
M  V30 7 1 7 8
M  V30 8 2 8 9
M  V30 9 1 8 10
M  V30 10 1 10 11
M  V30 11 1 11 12
M  V30 12 1 12 13
M  V30 13 1 13 14
M  V30 14 1 13 15
M  V30 15 1 14 16
M  V30 16 1 15 17
M  V30 17 2 16 18
M  V30 18 1 18 19
M  V30 19 1 19 20
M  V30 20 1 19 21
M  V30 21 2 20 22
M  V30 22 1 20 23
M  V30 23 2 21 24
M  V30 24 1 21 25
M  V30 25 1 24 26
M  V30 26 2 25 27
M  V30 27 2 26 28
M  V30 28 1 6 7
M  V30 29 1 17 18
M  V30 30 1 23 24
M  V30 31 1 27 28
M  V30 END BOND
M  V30 END CTAB
M  END
>  <Molecule Name>


>  <status>
-

>  <cas>
548-73-2

>  <name>
DROPERIDOL

>  <ID>
356

>  <Smiles>
O=C(CCCN(CC1)CC=C1N(c(cccc1)c1N1)C1=O)c(cc1)ccc1F

$$$$

Actelion Java MolfileCreator 2.0

  0  0  0  0  0  0              0 V3000
M  V30 BEGIN CTAB
M  V30 COUNTS 25 27 0 0 0
M  V30 BEGIN ATOM
M  V30 1 O 1.732 -1.5 0.0 0
M  V30 2 C 1.732 -0.5 0.0 0
M  V30 3 N 2.598 0.0 0.0 0
M  V30 4 C 0.866 0.0 0.0 0
M  V30 5 C 3.4641 -0.5 0.0 0
M  V30 6 C 2.598 1.0 0.0 0
M  V30 7 C 0.0 -0.5 0.0 0
M  V30 8 C 3.4641 -1.5 0.0 0
M  V30 9 C 4.3301 0.0 0.0 0
M  V30 10 C 3.4641 1.5 0.0 0
M  V30 11 C 1.732 1.4999 0.0 0
M  V30 12 C 4.3301 -2.0 0.0 0
M  V30 13 C 5.1961 -0.5 0.0 0
M  V30 14 C 3.4641 2.5 0.0 0
M  V30 15 C 1.732 2.4999 0.0 0
M  V30 16 C 5.1961 -1.5 0.0 0
M  V30 17 N 2.598 3.0 0.0 0
M  V30 18 C 2.598 4.0 0.0 0
M  V30 19 C 3.4641 4.5 0.0 0
M  V30 20 C 3.4641 5.5 0.0 0
M  V30 21 C 4.3301 5.9999 0.0 0
M  V30 22 C 2.598 6.0 0.0 0
M  V30 23 C 4.3301 7.0 0.0 0
M  V30 24 C 2.598 7.0 0.0 0
M  V30 25 C 3.4641 7.5 0.0 0
M  V30 END ATOM
M  V30 BEGIN BOND
M  V30 1 2 1 2
M  V30 2 1 2 3
M  V30 3 1 2 4
M  V30 4 1 3 5
M  V30 5 1 3 6
M  V30 6 1 4 7
M  V30 7 2 5 8
M  V30 8 1 5 9
M  V30 9 1 6 10
M  V30 10 1 6 11
M  V30 11 1 8 12
M  V30 12 2 9 13
M  V30 13 1 10 14
M  V30 14 1 11 15
M  V30 15 2 12 16
M  V30 16 1 14 17
M  V30 17 1 17 18
M  V30 18 1 18 19
M  V30 19 1 19 20
M  V30 20 2 20 21
M  V30 21 1 20 22
M  V30 22 1 21 23
M  V30 23 2 22 24
M  V30 24 2 23 25
M  V30 25 1 13 16
M  V30 26 1 15 17
M  V30 27 1 24 25
M  V30 END BOND
M  V30 END CTAB
M  END
>  <Molecule Name>


>  <status>
-

>  <cas>
437-38-7

>  <name>
FENTANYL

>  <ID>
357

>  <Smiles>
CCC(N(C1CCN(CCc2ccccc2)CC1)c1ccccc1)=O

$$$$

Actelion Java MolfileCreator 2.0

  0  0  0  0  0  0              0 V3000
M  V30 BEGIN CTAB
M  V30 COUNTS 25 27 0 0 0
M  V30 BEGIN ATOM
M  V30 1 Cl 10.2033 -5.1334 0.0 0
M  V30 2 C 9.5932 -3.7631 0.0 0
M  V30 3 C 10.4749 -2.5496 0.0 0
M  V30 4 C 8.1014 -3.6063 0.0 0
M  V30 5 C 9.8647 -1.1792 0.0 0
M  V30 6 C 7.4913 -2.236 0.0 0
M  V30 7 C 8.373 -1.0224 0.0 0
M  V30 8 C 7.7629 0.3478 0.0 0
M  V30 9 O 8.6445 1.5613 0.0 0
M  V30 10 N 6.2711 0.5046 0.0 0
M  V30 11 C 5.5211 1.8036 0.0 0
M  V30 12 C 5.2674 -0.6101 0.0 0
M  V30 13 C 4.0539 1.4917 0.0 0
M  V30 14 C 5.9846 3.2302 0.0 0
M  V30 15 C 3.8971 0.0 0.0 0
M  V30 16 C 5.5793 -2.0773 0.0 0
M  V30 17 C 3.0502 2.6065 0.0 0
M  V30 18 C 4.9809 4.3449 0.0 0
M  V30 19 C 2.598 -0.75 0.0 0
M  V30 20 C 3.5137 4.033 0.0 0
M  V30 21 C 1.299 0.0 0.0 0
M  V30 22 O 2.51 5.1478 0.0 0
M  V30 23 O 1.299 1.5 0.0 0
M  V30 24 O 0.0 -0.75 0.0 0 CHG=-1
M  V30 25 C 1.0428 4.8359 0.0 0
M  V30 END ATOM
M  V30 BEGIN BOND
M  V30 1 1 1 2
M  V30 2 2 2 3
M  V30 3 1 2 4
M  V30 4 1 3 5
M  V30 5 2 4 6
M  V30 6 2 5 7
M  V30 7 1 7 8
M  V30 8 2 8 9
M  V30 9 1 8 10
M  V30 10 1 10 11
M  V30 11 1 10 12
M  V30 12 2 11 13
M  V30 13 1 11 14
M  V30 14 2 12 15
M  V30 15 1 12 16
M  V30 16 1 13 17
M  V30 17 2 14 18
M  V30 18 1 15 19
M  V30 19 2 17 20
M  V30 20 1 19 21
M  V30 21 1 20 22
M  V30 22 2 21 23
M  V30 23 1 21 24
M  V30 24 1 22 25
M  V30 25 1 6 7
M  V30 26 1 13 15
M  V30 27 1 18 20
M  V30 END BOND
M  V30 END CTAB
M  END
>  <Molecule Name>


>  <status>
-

>  <cas>
53-86-1

>  <name>
INDOMETHACIN

>  <ID>
358

>  <Smiles>
Cc1c(CC([O-])=O)c(cc(cc2)OC)c2n1C(c(cc1)ccc1Cl)=O

$$$$

Actelion Java MolfileCreator 2.0

  0  0  0  0  0  0              0 V3000
M  V30 BEGIN CTAB
M  V30 COUNTS 10 11 0 0 0
M  V30 BEGIN ATOM
M  V30 1 O 1.299 0.0 0.0 0
M  V30 2 C 0.0 -0.75 0.0 0
M  V30 3 N -1.299 0.0 0.0 0
M  V30 4 C 0.0 -2.2499 0.0 0
M  V30 5 C -2.598 -0.7499 0.0 0
M  V30 6 C -1.299 -3.0 0.0 0
M  V30 7 C 1.1147 -3.2536 0.0 0
M  V30 8 N -2.598 -2.2499 0.0 0
M  V30 9 N -0.9871 -4.4672 0.0 0
M  V30 10 N 0.5046 -4.624 0.0 0
M  V30 END ATOM
M  V30 BEGIN BOND
M  V30 1 2 1 2
M  V30 2 1 2 3
M  V30 3 1 2 4
M  V30 4 2 3 5
M  V30 5 1 4 6
M  V30 6 2 4 7
M  V30 7 1 5 8
M  V30 8 1 6 9
M  V30 9 1 7 10
M  V30 10 2 6 8
M  V30 11 1 9 10
M  V30 END BOND
M  V30 END CTAB
M  END
>  <Molecule Name>


>  <status>
-

>  <cas>
315-30-0

>  <name>
ALLOPURINOL

>  <ID>
359

>  <Smiles>
O=C1N=CN=C2NNC=C12

$$$$
_c001
Actelion Java MolfileCreator 2.0

  0  0  0  0  0  0              0 V3000
M  V30 BEGIN CTAB
M  V30 COUNTS 14 14 0 0 0
M  V30 BEGIN ATOM
M  V30 1 O 1.732 1.4999 0.0 0
M  V30 2 C 2.598 1.0 0.0 0
M  V30 3 C 0.866 1.0 0.0 0
M  V30 4 C 2.598 0.0 0.0 0
M  V30 5 C 3.4641 1.4999 0.0 0
M  V30 6 C 3.4641 -0.5 0.0 0
M  V30 7 C 1.732 -0.5 0.0 0 CFG=1
M  V30 8 C 4.3301 1.0 0.0 0
M  V30 9 C 4.3301 0.0 0.0 0
M  V30 10 O 1.732 -1.5 0.0 0
M  V30 11 C 0.866 0.0 0.0 0
M  V30 12 O 5.1961 -0.5 0.0 0
M  V30 13 N 0.0 -0.5 0.0 0
M  V30 14 C 6.0621 0.0 0.0 0
M  V30 END ATOM
M  V30 BEGIN BOND
M  V30 1 1 1 2
M  V30 2 1 1 3
M  V30 3 2 2 4
M  V30 4 1 2 5
M  V30 5 1 4 6
M  V30 6 1 7 4
M  V30 7 2 5 8
M  V30 8 2 6 9
M  V30 9 1 7 10 CFG=1
M  V30 10 1 7 11
M  V30 11 1 9 12
M  V30 12 1 11 13
M  V30 13 1 12 14
M  V30 14 1 8 9
M  V30 END BOND
M  V30 BEGIN COLLECTION
M  V30 MDLV30/STERAC1 ATOMS=(1 7)
M  V30 END COLLECTION
M  V30 END CTAB
M  END
>  <Molecule Name>
_c001

>  <status>
-

>  <cas>
3600-87-1

>  <name>
M MIDODRINE

>  <ID>
360

>  <Smiles>
COc(cc1)cc(C(CN)O)c1OC

$$$$

Actelion Java MolfileCreator 2.0

  0  0  0  0  0  0              0 V3000
M  V30 BEGIN CTAB
M  V30 COUNTS 14 16 0 0 0
M  V30 BEGIN ATOM
M  V30 1 S 3.673 0.5046 0.0 0
M  V30 2 C 2.923 1.8036 0.0 0
M  V30 3 C 2.6693 -0.6101 0.0 0
M  V30 4 N 1.4558 1.4917 0.0 0
M  V30 5 C 1.299 0.0 0.0 0
M  V30 6 C 0.0 -0.75 0.0 0
M  V30 7 N -1.3703 -0.1398 0.0 0
M  V30 8 N -0.1567 -2.2417 0.0 0
M  V30 9 C -2.374 -1.2546 0.0 0
M  V30 10 C -1.624 -2.5536 0.0 0
M  V30 11 C -3.874 -1.2546 0.0 0
M  V30 12 C -2.374 -3.8526 0.0 0
M  V30 13 C -4.624 -2.5536 0.0 0
M  V30 14 C -3.874 -3.8526 0.0 0
M  V30 END ATOM
M  V30 BEGIN BOND
M  V30 1 1 1 2
M  V30 2 1 1 3
M  V30 3 2 2 4
M  V30 4 2 3 5
M  V30 5 1 5 6
M  V30 6 2 6 7
M  V30 7 1 6 8
M  V30 8 1 7 9
M  V30 9 1 8 10
M  V30 10 1 9 11
M  V30 11 1 10 12
M  V30 12 2 11 13
M  V30 13 2 12 14
M  V30 14 1 4 5
M  V30 15 2 9 10
M  V30 16 1 13 14
M  V30 END BOND
M  V30 END CTAB
M  END
>  <Molecule Name>


>  <status>
DISCONTINUED

>  <cas>
148-79-8

>  <name>
THIABENDAZOLE

>  <ID>
361

>  <Smiles>
c1c(-c2nc(cccc3)c3[nH]2)ncs1

$$$$

Actelion Java MolfileCreator 2.0

  0  0  0  0  0  0              0 V3000
M  V30 BEGIN CTAB
M  V30 COUNTS 16 16 0 0 0
M  V30 BEGIN ATOM
M  V30 1 Cl 11.6913 -3.0 0.0 0
M  V30 2 C 10.3923 -2.25 0.0 0
M  V30 3 C 10.3923 -0.75 0.0 0
M  V30 4 C 9.0932 -3.0 0.0 0
M  V30 5 C 9.0932 0.0 0.0 0
M  V30 6 C 7.7942 -2.25 0.0 0
M  V30 7 C 7.7942 -0.75 0.0 0
M  V30 8 O 6.4952 0.0 0.0 0
M  V30 9 C 5.1961 -0.75 0.0 0
M  V30 10 C 3.8971 0.0 0.0 0
M  V30 11 C 4.4461 -2.049 0.0 0
M  V30 12 C 5.9461 -2.049 0.0 0
M  V30 13 O 3.8971 1.5 0.0 0
M  V30 14 O 2.598 -0.75 0.0 0
M  V30 15 C 1.299 0.0 0.0 0
M  V30 16 C 0.0 -0.75 0.0 0
M  V30 END ATOM
M  V30 BEGIN BOND
M  V30 1 1 1 2
M  V30 2 2 2 3
M  V30 3 1 2 4
M  V30 4 1 3 5
M  V30 5 2 4 6
M  V30 6 2 5 7
M  V30 7 1 7 8
M  V30 8 1 8 9
M  V30 9 1 9 10
M  V30 10 1 9 11
M  V30 11 1 9 12
M  V30 12 2 10 13
M  V30 13 1 10 14
M  V30 14 1 14 15
M  V30 15 1 15 16
M  V30 16 1 6 7
M  V30 END BOND
M  V30 END CTAB
M  END
>  <Molecule Name>


>  <status>
DISCONTINUED

>  <cas>
637-07-0

>  <name>
CLOFIBRATE

>  <ID>
362

>  <Smiles>
CCOC(C(C)(C)Oc(cc1)ccc1Cl)=O

$$$$

Actelion Java MolfileCreator 2.0

  0  0  0  0  0  0              0 V3000
M  V30 BEGIN CTAB
M  V30 COUNTS 22 25 0 0 0
M  V30 BEGIN ATOM
M  V30 1 O 1.299 0.0 0.0 0
M  V30 2 C 0.0 -0.75 0.0 0
M  V30 3 C -1.299 0.0 0.0 0
M  V30 4 C 0.0 -2.2499 0.0 0
M  V30 5 C -2.598 -0.7499 0.0 0
M  V30 6 C -1.299 -2.9999 0.0 0
M  V30 7 C -2.598 -2.2499 0.0 0 CFG=2
M  V30 8 C -3.8971 0.0 0.0 0
M  V30 9 C -3.8971 -2.9999 0.0 0 CFG=2
M  V30 10 C -2.598 -3.7499 0.0 0
M  V30 11 C -5.1961 -0.7499 0.0 0
M  V30 12 C -5.1961 -2.2499 0.0 0 CFG=1
M  V30 13 C -3.8971 -4.4999 0.0 0
M  V30 14 C -6.4951 -2.9999 0.0 0 CFG=1
M  V30 15 C -5.1961 -5.2499 0.0 0
M  V30 16 C -6.4951 -4.4999 0.0 0 CFG=2
M  V30 17 C -7.7942 -2.2499 0.0 0
M  V30 18 O -7.7942 -5.2499 0.0 0
M  V30 19 C -6.4951 -5.9999 0.0 0
M  V30 20 C -9.0932 -2.9999 0.0 0
M  V30 21 C -9.0932 -4.4999 0.0 0
M  V30 22 O -10.3923 -5.2499 0.0 0
M  V30 END ATOM
M  V30 BEGIN BOND
M  V30 1 2 1 2
M  V30 2 1 2 3
M  V30 3 1 2 4
M  V30 4 2 3 5
M  V30 5 2 4 6
M  V30 6 1 7 5
M  V30 7 1 5 8
M  V30 8 1 9 7
M  V30 9 1 7 10 CFG=1
M  V30 10 1 8 11
M  V30 11 1 12 9
M  V30 12 1 9 13 CFG=1
M  V30 13 1 14 12
M  V30 14 1 13 15
M  V30 15 1 16 14
M  V30 16 1 14 17 CFG=1
M  V30 17 1 16 18
M  V30 18 1 16 19 CFG=1
M  V30 19 1 17 20
M  V30 20 1 18 21
M  V30 21 2 21 22
M  V30 22 1 6 7
M  V30 23 1 12 11 CFG=3
M  V30 24 1 15 16
M  V30 25 1 20 21
M  V30 END BOND
M  V30 BEGIN COLLECTION
M  V30 MDLV30/STERAC1 ATOMS=(5 7 9 12 14 16)
M  V30 END COLLECTION
M  V30 END CTAB
M  END
>  <Molecule Name>


>  <status>
DISCONTINUED

>  <cas>
968-93-4

>  <name>
TESTOLACTONE

>  <ID>
363

>  <Smiles>
C[C@](CC1)([C@@H](CC2)[C@H](CC3)[C@H]1[C@@](C)(C=C1)C3=CC1=O)OC2=O

$$$$
_c001
Actelion Java MolfileCreator 2.0

  0  0  0  0  0  0              0 V3000
M  V30 BEGIN CTAB
M  V30 COUNTS 29 31 0 0 0
M  V30 BEGIN ATOM
M  V30 1 Cl 12.9903 -0.75 0.0 0
M  V30 2 C 12.9903 -2.25 0.0 0
M  V30 3 C 14.2894 -3.0 0.0 0
M  V30 4 C 11.6913 -3.0 0.0 0
M  V30 5 C 14.2894 -4.5 0.0 0
M  V30 6 C 15.5884 -2.25 0.0 0
M  V30 7 C 10.3923 -2.25 0.0 0
M  V30 8 C 11.6913 -4.5 0.0 0
M  V30 9 C 15.5884 -5.25 0.0 0
M  V30 10 C 16.8874 -3.0 0.0 0
M  V30 11 C 10.3923 -0.75 0.0 0
M  V30 12 C 9.0932 -3.0 0.0 0
M  V30 13 C 10.3923 -5.2499 0.0 0
M  V30 14 C 12.9903 -5.25 0.0 0
M  V30 15 C 16.8874 -4.5 0.0 0
M  V30 16 C 9.0932 0.0 0.0 0
M  V30 17 C 7.7942 -2.25 0.0 0
M  V30 18 C 10.3923 -6.75 0.0 0
M  V30 19 C 12.9903 -6.75 0.0 0
M  V30 20 C 7.7942 -0.75 0.0 0
M  V30 21 C 11.6913 -7.5 0.0 0
M  V30 22 O 6.4951 0.0 0.0 0
M  V30 23 C 5.1961 -0.75 0.0 0
M  V30 24 C 3.8971 0.0 0.0 0
M  V30 25 N 2.598 -0.75 0.0 0
M  V30 26 C 2.598 -2.25 0.0 0
M  V30 27 C 1.299 0.0 0.0 0
M  V30 28 C 3.8971 -3.0 0.0 0
M  V30 29 C 0.0 -0.75 0.0 0
M  V30 END ATOM
M  V30 BEGIN BOND
M  V30 1 1 1 2
M  V30 2 1 2 3
M  V30 3 2 2 4
M  V30 4 2 3 5
M  V30 5 1 3 6
M  V30 6 1 4 7
M  V30 7 1 4 8
M  V30 8 1 5 9
M  V30 9 2 6 10
M  V30 10 2 7 11
M  V30 11 1 7 12
M  V30 12 2 8 13
M  V30 13 1 8 14
M  V30 14 2 9 15
M  V30 15 1 11 16
M  V30 16 2 12 17
M  V30 17 1 13 18
M  V30 18 2 14 19
M  V30 19 2 16 20
M  V30 20 2 18 21
M  V30 21 1 20 22
M  V30 22 1 22 23
M  V30 23 1 23 24
M  V30 24 1 24 25
M  V30 25 1 25 26
M  V30 26 1 25 27
M  V30 27 1 26 28
M  V30 28 1 27 29
M  V30 29 1 10 15
M  V30 30 1 17 20
M  V30 31 1 19 21
M  V30 END BOND
M  V30 END CTAB
M  END
>  <Molecule Name>
_c001

>  <status>
-

>  <cas>
911-45-5

>  <name>
CLOMIPHENE

>  <ID>
364

>  <Smiles>
CCN(CC)CCOc(cc1)ccc1/C(/c1ccccc1)=C(/c1ccccc1)\Cl

$$$$

Actelion Java MolfileCreator 2.0

  0  0  0  0  0  0              0 V3000
M  V30 BEGIN CTAB
M  V30 COUNTS 21 23 0 0 0
M  V30 BEGIN ATOM
M  V30 1 O 6.9282 -4.8333 0.0 0
M  V30 2 C 6.0621 -4.3333 0.0 0
M  V30 3 C 6.0621 -3.3333 0.0 0
M  V30 4 C 5.1961 -4.8333 0.0 0
M  V30 5 C 5.1961 -2.8333 0.0 0
M  V30 6 C 4.3301 -4.3333 0.0 0
M  V30 7 C 4.3301 -3.3333 0.0 0
M  V30 8 C 5.1961 -1.8333 0.0 0 CFG=2
M  V30 9 C 3.4641 -2.8333 0.0 0
M  V30 10 C 4.3301 -1.3333 0.0 0 CFG=1
M  V30 11 C 5.1961 -0.4999 0.0 0
M  V30 12 C 6.1961 -1.8333 0.0 0
M  V30 13 C 3.4641 -1.8333 0.0 0 CFG=1
M  V30 14 C 4.3301 -0.4248 0.0 0
M  V30 15 C 4.3301 0.0375 0.0 0
M  V30 16 N 3.4641 -0.5 0.0 0
M  V30 17 C 2.598 0.0 0.0 0
M  V30 18 C 1.732 -0.5 0.0 0
M  V30 19 C 0.866 0.0 0.0 0
M  V30 20 C 0.866 1.0 0.0 0
M  V30 21 C 0.0 -0.5 0.0 0
M  V30 END ATOM
M  V30 BEGIN BOND
M  V30 1 1 1 2
M  V30 2 2 2 3
M  V30 3 1 2 4
M  V30 4 1 3 5
M  V30 5 2 4 6
M  V30 6 2 5 7
M  V30 7 1 8 5
M  V30 8 1 7 9
M  V30 9 1 10 8
M  V30 10 1 8 11 CFG=3
M  V30 11 1 8 12
M  V30 12 1 13 9
M  V30 13 1 10 14 CFG=1
M  V30 14 1 11 15
M  V30 15 1 13 16 CFG=3
M  V30 16 1 16 17
M  V30 17 1 17 18
M  V30 18 2 18 19
M  V30 19 1 19 20
M  V30 20 1 19 21
M  V30 21 1 6 7
M  V30 22 1 10 13
M  V30 23 1 15 16
M  V30 END BOND
M  V30 BEGIN COLLECTION
M  V30 MDLV30/STERAC1 ATOMS=(3 8 10 13)
M  V30 END COLLECTION
M  V30 END CTAB
M  END
>  <Molecule Name>


>  <status>
-

>  <cas>
359-83-1

>  <name>
PENTAZOCINE

>  <ID>
365

>  <Smiles>
C[C@H]([C@H](C1)N(CC=C(C)C)CC2)[C@@]2(C)c2c1ccc(O)c2

$$$$

Actelion Java MolfileCreator 2.0

  0  0  0  0  0  0              0 V3000
M  V30 BEGIN CTAB
M  V30 COUNTS 10 9 0 0 0
M  V30 BEGIN ATOM
M  V30 1 O 4.3301 0.0 0.0 0
M  V30 2 C 3.4641 -0.5 0.0 0
M  V30 3 O 2.598 0.0 0.0 0
M  V30 4 C 3.4641 -1.5 0.0 0
M  V30 5 C 1.732 -0.5 0.0 0
M  V30 6 C 0.866 0.0 0.0 0
M  V30 7 N 0.0 -0.5 0.0 0 CHG=1
M  V30 8 C 0.4999 -1.366 0.0 0
M  V30 9 C -0.866 -0.9999 0.0 0
M  V30 10 C -0.4999 0.366 0.0 0
M  V30 END ATOM
M  V30 BEGIN BOND
M  V30 1 2 1 2
M  V30 2 1 2 3
M  V30 3 1 2 4
M  V30 4 1 3 5
M  V30 5 1 5 6
M  V30 6 1 6 7
M  V30 7 1 7 8
M  V30 8 1 7 9
M  V30 9 1 7 10
M  V30 END BOND
M  V30 END CTAB
M  END
>  <Molecule Name>


>  <status>
-

>  <cas>
51-84-3

>  <name>
ACETYLCHOLINE

>  <ID>
366

>  <Smiles>
CC(OCC[N+](C)(C)C)=O

$$$$

Actelion Java MolfileCreator 2.0

  0  0  0  0  0  0              0 V3000
M  V30 BEGIN CTAB
M  V30 COUNTS 16 16 0 0 0
M  V30 BEGIN ATOM
M  V30 1 Br 5.1961 -0.75 0.0 0
M  V30 2 C 3.8971 0.0 0.0 0
M  V30 3 C 2.598 -0.75 0.0 0
M  V30 4 C 1.299 0.0 0.0 0
M  V30 5 O 1.299 1.5 0.0 0
M  V30 6 N 0.0 -0.75 0.0 0
M  V30 7 C -1.299 0.0 0.0 0
M  V30 8 C 0.0 -2.2499 0.0 0
M  V30 9 C -2.598 -0.7499 0.0 0
M  V30 10 C -1.299 -2.9999 0.0 0
M  V30 11 N -2.598 -2.2499 0.0 0
M  V30 12 C -3.8971 -2.9999 0.0 0
M  V30 13 O -5.1961 -2.2499 0.0 0
M  V30 14 C -3.8971 -4.4999 0.0 0
M  V30 15 C -5.1961 -5.2499 0.0 0
M  V30 16 Br -5.1961 -6.7499 0.0 0
M  V30 END ATOM
M  V30 BEGIN BOND
M  V30 1 1 1 2
M  V30 2 1 2 3
M  V30 3 1 3 4
M  V30 4 2 4 5
M  V30 5 1 4 6
M  V30 6 1 6 7
M  V30 7 1 6 8
M  V30 8 1 7 9
M  V30 9 1 8 10
M  V30 10 1 9 11
M  V30 11 1 11 12
M  V30 12 2 12 13
M  V30 13 1 12 14
M  V30 14 1 14 15
M  V30 15 1 15 16
M  V30 16 1 10 11
M  V30 END BOND
M  V30 END CTAB
M  END
>  <Molecule Name>


>  <status>
DISCONTINUED

>  <cas>
54-91-1

>  <name>
PIPOBROMAN

>  <ID>
367

>  <Smiles>
O=C(CCBr)N(CC1)CCN1C(CCBr)=O

$$$$

Actelion Java MolfileCreator 2.0

  0  0  0  0  0  0              0 V3000
M  V30 BEGIN CTAB
M  V30 COUNTS 39 38 0 0 0
M  V30 BEGIN ATOM
M  V30 1 O 15.5884 -1.4999 0.0 0
M  V30 2 C 15.5884 -0.5 0.0 0
M  V30 3 N 14.7224 0.0 0.0 0
M  V30 4 C 16.4544 0.0 0.0 0
M  V30 5 O 14.7224 1.0 0.0 0
M  V30 6 C 13.8564 -0.5 0.0 0
M  V30 7 C 17.3205 -0.5 0.0 0
M  V30 8 C 12.9903 0.0 0.0 0
M  V30 9 C 18.1865 0.0 0.0 0
M  V30 10 C 12.1243 -0.5 0.0 0
M  V30 11 O 18.1865 0.9999 0.0 0
M  V30 12 N 19.0525 -0.5 0.0 0
M  V30 13 C 11.2583 0.0 0.0 0
M  V30 14 C 19.9185 0.0 0.0 0
M  V30 15 C 10.3923 -0.5 0.0 0
M  V30 16 C 20.7846 -0.5 0.0 0
M  V30 17 N 9.5262 0.0 0.0 0
M  V30 18 C 21.6506 0.0 0.0 0
M  V30 19 C 8.6602 -0.5 0.0 0
M  V30 20 C 22.5166 -0.5 0.0 0
M  V30 21 O 8.6602 -1.4999 0.0 0
M  V30 22 C 7.7942 0.0 0.0 0
M  V30 23 C 23.3826 0.0 0.0 0
M  V30 24 C 6.9282 -0.5 0.0 0
M  V30 25 N 24.2487 -0.5 0.0 0
M  V30 26 C 6.0621 0.0 0.0 0
M  V30 27 O 24.2487 -1.4999 0.0 0
M  V30 28 C 25.1147 0.0 0.0 0
M  V30 29 O 6.0621 0.9999 0.0 0
M  V30 30 N 5.1961 -0.5 0.0 0
M  V30 31 O 25.9807 -0.5 0.0 0
M  V30 32 C 25.1147 0.9999 0.0 0
M  V30 33 O 5.1961 -1.4999 0.0 0
M  V30 34 C 4.3301 0.0 0.0 0
M  V30 35 C 3.4641 -0.5 0.0 0
M  V30 36 C 2.598 0.0 0.0 0
M  V30 37 C 1.732 -0.5 0.0 0
M  V30 38 C 0.866 0.0 0.0 0
M  V30 39 N 0.0 -0.5 0.0 0
M  V30 END ATOM
M  V30 BEGIN BOND
M  V30 1 2 1 2
M  V30 2 1 2 3
M  V30 3 1 2 4
M  V30 4 1 3 5
M  V30 5 1 3 6
M  V30 6 1 4 7
M  V30 7 1 6 8
M  V30 8 1 7 9
M  V30 9 1 8 10
M  V30 10 2 9 11
M  V30 11 1 9 12
M  V30 12 1 10 13
M  V30 13 1 12 14
M  V30 14 1 13 15
M  V30 15 1 14 16
M  V30 16 1 15 17
M  V30 17 1 16 18
M  V30 18 1 17 19
M  V30 19 1 18 20
M  V30 20 2 19 21
M  V30 21 1 19 22
M  V30 22 1 20 23
M  V30 23 1 22 24
M  V30 24 1 23 25
M  V30 25 1 24 26
M  V30 26 1 25 27
M  V30 27 1 25 28
M  V30 28 2 26 29
M  V30 29 1 26 30
M  V30 30 2 28 31
M  V30 31 1 28 32
M  V30 32 1 30 33
M  V30 33 1 30 34
M  V30 34 1 34 35
M  V30 35 1 35 36
M  V30 36 1 36 37
M  V30 37 1 37 38
M  V30 38 1 38 39
M  V30 END BOND
M  V30 END CTAB
M  END
>  <Molecule Name>


>  <status>
-

>  <cas>
70-51-9

>  <name>
DEFEROXAMINE

>  <ID>
368

>  <Smiles>
CC(N(CCCCCNC(CCC(N(CCCCCNC(CCC(N(CCCCCN)O)=O)=O)O)=O)=O)O)=O

$$$$

Actelion Java MolfileCreator 2.0

  0  0  0  0  0  0              0 V3000
M  V30 BEGIN CTAB
M  V30 COUNTS 21 22 0 0 0
M  V30 BEGIN ATOM
M  V30 1 Cl 5.1961 -0.5 0.0 0
M  V30 2 C 4.3301 0.0 0.0 0
M  V30 3 C 4.3301 1.0 0.0 0
M  V30 4 C 3.4641 -0.4999 0.0 0
M  V30 5 S 5.1961 1.5 0.0 0
M  V30 6 C 3.4641 1.5 0.0 0
M  V30 7 C 2.598 0.0 0.0 0
M  V30 8 O 5.6961 0.6339 0.0 0
M  V30 9 O 4.6961 2.366 0.0 0
M  V30 10 N 6.0621 1.9999 0.0 0
M  V30 11 C 2.598 1.0 0.0 0
M  V30 12 N 1.732 -0.5 0.0 0
M  V30 13 C 1.732 1.4999 0.0 0
M  V30 14 C 0.866 0.0 0.0 0
M  V30 15 O 1.732 2.5 0.0 0
M  V30 16 O 0.866 1.0 0.0 0 CHG=-1
M  V30 17 C 0.0 -0.5 0.0 0
M  V30 18 O -0.9135 -0.0932 0.0 0
M  V30 19 C -0.1045 -1.4945 0.0 0
M  V30 20 C -1.5826 -0.8364 0.0 0
M  V30 21 C -1.0826 -1.7024 0.0 0
M  V30 END ATOM
M  V30 BEGIN BOND
M  V30 1 1 1 2
M  V30 2 2 2 3
M  V30 3 1 2 4
M  V30 4 1 3 5
M  V30 5 1 3 6
M  V30 6 2 4 7
M  V30 7 2 5 8
M  V30 8 2 5 9
M  V30 9 1 5 10
M  V30 10 2 6 11
M  V30 11 1 7 12
M  V30 12 1 11 13
M  V30 13 1 12 14
M  V30 14 2 13 15
M  V30 15 1 13 16
M  V30 16 1 14 17
M  V30 17 1 17 18
M  V30 18 2 17 19
M  V30 19 1 18 20
M  V30 20 1 19 21
M  V30 21 1 7 11
M  V30 22 2 20 21
M  V30 END BOND
M  V30 END CTAB
M  END
>  <Molecule Name>


>  <status>
-

>  <cas>
54-31-9

>  <name>
FUROSEMIDE

>  <ID>
369

>  <Smiles>
NS(c(cc(C([O-])=O)c(NCc1ccco1)c1)c1Cl)(=O)=O

$$$$

Actelion Java MolfileCreator 2.0

  0  0  0  0  0  0              0 V3000
M  V30 BEGIN CTAB
M  V30 COUNTS 5 4 0 0 0
M  V30 BEGIN ATOM
M  V30 1 O 2.598 0.0 0.0 0
M  V30 2 C 1.732 -0.5 0.0 0
M  V30 3 N 0.866 0.0 0.0 0
M  V30 4 N 1.732 -1.5 0.0 0
M  V30 5 O 0.0 -0.5 0.0 0
M  V30 END ATOM
M  V30 BEGIN BOND
M  V30 1 2 1 2
M  V30 2 1 2 3
M  V30 3 1 2 4
M  V30 4 1 3 5
M  V30 END BOND
M  V30 END CTAB
M  END
>  <Molecule Name>


>  <status>
-

>  <cas>
127-07-1

>  <name>
HYDROXYUREA

>  <ID>
370

>  <Smiles>
NC(NO)=O

$$$$

Actelion Java MolfileCreator 2.0

  0  0  0  0  0  0              0 V3000
M  V30 BEGIN CTAB
M  V30 COUNTS 14 13 0 0 0
M  V30 BEGIN ATOM
M  V30 1 O 11.6913 0.0 0.0 0
M  V30 2 C 10.3923 -0.75 0.0 0
M  V30 3 C 9.0932 0.0 0.0 0 CFG=1
M  V30 4 N 7.7942 -0.75 0.0 0
M  V30 5 C 9.0932 1.5 0.0 0
M  V30 6 C 6.4951 0.0 0.0 0
M  V30 7 C 7.7942 2.25 0.0 0
M  V30 8 C 5.1961 -0.75 0.0 0
M  V30 9 N 3.8971 0.0 0.0 0
M  V30 10 C 2.598 -0.75 0.0 0 CFG=2
M  V30 11 C 2.598 -2.25 0.0 0
M  V30 12 C 1.299 0.0 0.0 0
M  V30 13 O 3.8971 -3.0 0.0 0
M  V30 14 C 0.0 -0.75 0.0 0
M  V30 END ATOM
M  V30 BEGIN BOND
M  V30 1 1 1 2
M  V30 2 1 3 2
M  V30 3 1 3 4 CFG=1
M  V30 4 1 3 5
M  V30 5 1 4 6
M  V30 6 1 5 7
M  V30 7 1 6 8
M  V30 8 1 8 9
M  V30 9 1 10 9 CFG=3
M  V30 10 1 10 11
M  V30 11 1 10 12
M  V30 12 1 11 13
M  V30 13 1 12 14
M  V30 END BOND
M  V30 BEGIN COLLECTION
M  V30 MDLV30/STERAC1 ATOMS=(2 3 10)
M  V30 END COLLECTION
M  V30 END CTAB
M  END
>  <Molecule Name>


>  <status>
-

>  <cas>
74-55-5

>  <name>
ETHAMBUTOL

>  <ID>
371

>  <Smiles>
CC[C@@H](CO)NCCN[C@@H](CC)CO

$$$$

Actelion Java MolfileCreator 2.0

  0  0  0  0  0  0              0 V3000
M  V30 BEGIN CTAB
M  V30 COUNTS 19 21 0 0 0
M  V30 BEGIN ATOM
M  V30 1 S 0.866 0.0 0.0 0
M  V30 2 C 1.732 -0.5 0.0 0
M  V30 3 C 0.0 -0.5 0.0 0
M  V30 4 N 1.732 -1.5 0.0 0
M  V30 5 C 2.598 0.0 0.0 0
M  V30 6 N -0.1045 -1.4945 0.0 0
M  V30 7 C -0.9135 -0.0932 0.0 0
M  V30 8 C 2.598 -2.0 0.0 0
M  V30 9 N 2.8059 0.9781 0.0 0
M  V30 10 C 3.4641 -0.4999 0.0 0
M  V30 11 C -1.0826 -1.7024 0.0 0
M  V30 12 C 0.6386 -2.1636 0.0 0
M  V30 13 N -1.1214 0.8848 0.0 0 CHG=1
M  V30 14 N -1.5826 -0.8364 0.0 0
M  V30 15 N 3.4641 -1.4999 0.0 0
M  V30 16 C 3.8005 1.0826 0.0 0
M  V30 17 N 4.2072 0.1691 0.0 0
M  V30 18 O -2.0725 1.1939 0.0 0
M  V30 19 O -0.3783 1.554 0.0 0 CHG=-1
M  V30 END ATOM
M  V30 BEGIN BOND
M  V30 1 1 1 2
M  V30 2 1 1 3
M  V30 3 2 2 4
M  V30 4 1 2 5
M  V30 5 1 3 6
M  V30 6 2 3 7
M  V30 7 1 4 8
M  V30 8 1 5 9
M  V30 9 2 5 10
M  V30 10 1 6 11
M  V30 11 1 6 12
M  V30 12 1 7 13
M  V30 13 1 7 14
M  V30 14 2 8 15
M  V30 15 1 9 16
M  V30 16 1 10 17
M  V30 17 2 13 18
M  V30 18 1 13 19
M  V30 19 1 10 15
M  V30 20 2 11 14
M  V30 21 2 16 17
M  V30 END BOND
M  V30 END CTAB
M  END
>  <Molecule Name>


>  <status>
-

>  <cas>
446-86-6

>  <name>
AZATHIOPRINE

>  <ID>
372

>  <Smiles>
Cn(cn1)c(Sc2ncnc3c2[nH]cn3)c1[N+]([O-])=O

$$$$
_c001
Actelion Java MolfileCreator 2.0

  0  0  0  0  0  0              0 V3000
M  V30 BEGIN CTAB
M  V30 COUNTS 35 38 0 0 0
M  V30 BEGIN ATOM
M  V30 1 F 9.6061 -4.9296 0.0 0
M  V30 2 C 8.4193 -5.3625 0.0 0 CFG=2
M  V30 3 C 9.4233 -6.4776 0.0 0 CFG=2
M  V30 4 C 8.883 -3.9356 0.0 0 CFG=1
M  V30 5 C 6.9517 -5.6745 0.0 0 CFG=2
M  V30 6 C 8.9597 -7.9045 0.0 0
M  V30 7 C 10.8909 -6.1656 0.0 0
M  V30 8 C 10.1522 -4.7853 0.0 0
M  V30 9 O 10.3506 -3.6236 0.0 0
M  V30 10 C 7.879 -2.8205 0.0 0
M  V30 11 C 5.9477 -4.5595 0.0 0 CFG=1
M  V30 12 C 6.4881 -7.1015 0.0 0
M  V30 13 C 9.9636 -9.0196 0.0 0
M  V30 14 C 7.492 -8.2165 0.0 0 CFG=2
M  V30 15 C 11.8949 -7.2806 0.0 0
M  V30 16 C 6.4114 -3.1325 0.0 0 CFG=1
M  V30 17 C 4.4473 -4.5595 0.0 0
M  V30 18 C 11.4313 -8.7076 0.0 0
M  V30 19 F 7.0284 -9.6435 0.0 0
M  V30 20 C 5.1975 -2.2506 0.0 0 CFG=1
M  V30 21 C 6.9637 -1.7863 0.0 0
M  V30 22 C 3.9837 -3.1325 0.0 0 CFG=2
M  V30 23 O 12.4352 -9.8226 0.0 0
M  V30 24 O 6.4143 -1.5087 0.0 0
M  V30 25 C 5.1975 -0.7502 0.0 0
M  V30 26 C 2.5567 -2.6688 0.0 0
M  V30 27 O 6.4969 0.0 0.0 0
M  V30 28 C 3.8981 0.0 0.0 0
M  V30 29 O 2.5987 -0.7502 0.0 0
M  V30 30 C 1.2993 0.0 0.0 0
M  V30 31 O 1.2993 1.5004 0.0 0
M  V30 32 C 0.0 -0.7502 0.0 0
M  V30 33 C 0.7502 -2.0496 0.0 0
M  V30 34 C -1.2993 -1.5004 0.0 0
M  V30 35 C -0.7502 0.5491 0.0 0
M  V30 END ATOM
M  V30 BEGIN BOND
M  V30 1 1 2 1 CFG=1
M  V30 2 1 3 2
M  V30 3 1 4 2
M  V30 4 1 5 2
M  V30 5 1 3 6
M  V30 6 1 3 7
M  V30 7 1 3 8 CFG=3
M  V30 8 1 4 9 CFG=3
M  V30 9 1 4 10
M  V30 10 1 11 5
M  V30 11 1 5 12 CFG=1
M  V30 12 2 6 13
M  V30 13 1 14 6
M  V30 14 2 7 15
M  V30 15 1 16 10
M  V30 16 1 11 17 CFG=3
M  V30 17 1 13 18
M  V30 18 1 14 19 CFG=1
M  V30 19 1 20 16
M  V30 20 1 16 21 CFG=3
M  V30 21 1 22 17
M  V30 22 2 18 23
M  V30 23 1 20 24 CFG=1
M  V30 24 1 20 25
M  V30 25 1 22 26 CFG=1
M  V30 26 2 25 27
M  V30 27 1 25 28
M  V30 28 1 28 29
M  V30 29 1 29 30
M  V30 30 2 30 31
M  V30 31 1 30 32
M  V30 32 1 32 33
M  V30 33 1 32 34
M  V30 34 1 32 35
M  V30 35 1 11 16
M  V30 36 1 12 14
M  V30 37 1 15 18
M  V30 38 1 20 22
M  V30 END BOND
M  V30 BEGIN COLLECTION
M  V30 MDLV30/STERAC1 ATOMS=(9 2 3 4 5 11 14 16 20 22)
M  V30 END COLLECTION
M  V30 END CTAB
M  END
>  <Molecule Name>
_c001

>  <status>
DISCONTINUED

>  <cas>
2002-29-1

>  <name>
FLUMETHASONE PIVALATE

>  <ID>
373

>  <Smiles>
C[C@H](C[C@@H]([C@H](C[C@@H](C([C@]1(C)C=C2)=CC2=O)F)[C@@]11F)[C@]2(C)C[C@@H]1O)[C@@]2(C(COC(C(C)(C)C)=O)=O)O

$$$$

Actelion Java MolfileCreator 2.0

  0  0  0  0  0  0              0 V3000
M  V30 BEGIN CTAB
M  V30 COUNTS 11 11 0 0 0
M  V30 BEGIN ATOM
M  V30 1 O 3.8971 0.0 0.0 0
M  V30 2 C 2.598 -0.75 0.0 0
M  V30 3 N 1.299 0.0 0.0 0
M  V30 4 C 2.598 -2.25 0.0 0
M  V30 5 C 0.0 -0.75 0.0 0
M  V30 6 C -1.299 0.0 0.0 0
M  V30 7 C 0.0 -2.2499 0.0 0
M  V30 8 C -2.598 -0.7499 0.0 0
M  V30 9 C -1.299 -2.9999 0.0 0
M  V30 10 C -2.598 -2.2499 0.0 0
M  V30 11 O -3.8971 -2.9999 0.0 0
M  V30 END ATOM
M  V30 BEGIN BOND
M  V30 1 2 1 2
M  V30 2 1 2 3
M  V30 3 1 2 4
M  V30 4 1 3 5
M  V30 5 2 5 6
M  V30 6 1 5 7
M  V30 7 1 6 8
M  V30 8 2 7 9
M  V30 9 2 8 10
M  V30 10 1 10 11
M  V30 11 1 9 10
M  V30 END BOND
M  V30 END CTAB
M  END
>  <Molecule Name>


>  <status>
-

>  <cas>
103-90-2

>  <name>
ACETAMINOPHEN

>  <ID>
374

>  <Smiles>
CC(Nc(cc1)ccc1O)=O

$$$$

Actelion Java MolfileCreator 2.0

  0  0  0  0  0  0              0 V3000
M  V30 BEGIN CTAB
M  V30 COUNTS 19 20 0 0 0
M  V30 BEGIN ATOM
M  V30 1 O 5.1961 -0.5 0.0 0
M  V30 2 C 6.0621 0.0 0.0 0
M  V30 3 C 4.3301 0.0 0.0 0
M  V30 4 C 6.9282 -0.5 0.0 0
M  V30 5 C 6.0621 0.9999 0.0 0
M  V30 6 C 3.4641 -0.5 0.0 0 CFG=1
M  V30 7 C 7.7942 0.0 0.0 0
M  V30 8 C 6.9282 -1.4999 0.0 0
M  V30 9 C 6.9282 1.4999 0.0 0
M  V30 10 O 3.4641 -1.5 0.0 0
M  V30 11 C 2.598 0.0 0.0 0
M  V30 12 C 7.7942 0.9999 0.0 0
M  V30 13 C 8.6602 -0.5 0.0 0
M  V30 14 C 7.7942 -2.0 0.0 0
M  V30 15 N 1.732 -0.5 0.0 0
M  V30 16 C 8.6602 -1.5 0.0 0
M  V30 17 C 0.866 0.0 0.0 0
M  V30 18 C 0.866 1.0 0.0 0
M  V30 19 C 0.0 -0.5 0.0 0
M  V30 END ATOM
M  V30 BEGIN BOND
M  V30 1 1 1 2
M  V30 2 1 1 3
M  V30 3 1 2 4
M  V30 4 2 2 5
M  V30 5 1 6 3
M  V30 6 1 4 7
M  V30 7 2 4 8
M  V30 8 1 5 9
M  V30 9 1 6 10 CFG=1
M  V30 10 1 6 11
M  V30 11 1 7 12
M  V30 12 2 7 13
M  V30 13 1 8 14
M  V30 14 1 11 15
M  V30 15 1 13 16
M  V30 16 1 15 17
M  V30 17 1 17 18
M  V30 18 1 17 19
M  V30 19 2 9 12
M  V30 20 2 14 16
M  V30 END BOND
M  V30 BEGIN COLLECTION
M  V30 MDLV30/STERAC1 ATOMS=(1 6)
M  V30 END COLLECTION
M  V30 END CTAB
M  END
>  <Molecule Name>


>  <status>
-

>  <cas>
525-66-6

>  <name>
PROPRANOLOL

>  <ID>
375

>  <Smiles>
CC(C)NCC(COc1cccc2ccccc12)O

$$$$

Actelion Java MolfileCreator 2.0

  0  0  0  0  0  0              0 V3000
M  V30 BEGIN CTAB
M  V30 COUNTS 30 33 0 0 0
M  V30 BEGIN ATOM
M  V30 1 S 7.7942 3.75 0.0 0
M  V30 2 O 7.0442 5.049 0.0 0
M  V30 3 O 6.2942 3.7499 0.0 0
M  V30 4 N 9.0932 4.5 0.0 0
M  V30 5 C 7.7942 2.25 0.0 0
M  V30 6 C 10.3923 3.75 0.0 0
M  V30 7 C 9.0932 6.0 0.0 0
M  V30 8 C 6.4951 1.5 0.0 0
M  V30 9 C 9.0932 1.5 0.0 0
M  V30 10 C 6.4951 0.0 0.0 0
M  V30 11 C 9.0932 0.0 0.0 0
M  V30 12 C 7.7942 -0.75 0.0 0
M  V30 13 C 5.1961 -0.75 0.0 0
M  V30 14 S 7.7942 -2.25 0.0 0
M  V30 15 C 5.1961 -2.25 0.0 0
M  V30 16 C 3.8971 0.0 0.0 0
M  V30 17 C 6.4951 -3.0 0.0 0
M  V30 18 C 3.8971 -3.0 0.0 0
M  V30 19 C 3.8971 1.5 0.0 0
M  V30 20 C 6.4951 -4.5 0.0 0
M  V30 21 C 3.8971 -4.5 0.0 0
M  V30 22 C 2.598 2.25 0.0 0
M  V30 23 C 5.1961 -5.25 0.0 0
M  V30 24 N 2.598 3.75 0.0 0
M  V30 25 C 1.299 4.5 0.0 0
M  V30 26 C 3.8971 4.5 0.0 0
M  V30 27 C 1.299 6.0 0.0 0
M  V30 28 C 3.8971 6.0 0.0 0
M  V30 29 N 2.598 6.75 0.0 0
M  V30 30 C 2.598 8.25 0.0 0
M  V30 END ATOM
M  V30 BEGIN BOND
M  V30 1 2 1 2
M  V30 2 2 1 3
M  V30 3 1 1 4
M  V30 4 1 1 5
M  V30 5 1 4 6
M  V30 6 1 4 7
M  V30 7 2 5 8
M  V30 8 1 5 9
M  V30 9 1 8 10
M  V30 10 2 9 11
M  V30 11 2 10 12
M  V30 12 1 10 13
M  V30 13 1 12 14
M  V30 14 1 13 15
M  V30 15 2 13 16
M  V30 16 1 14 17
M  V30 17 1 15 18
M  V30 18 1 16 19
M  V30 19 1 17 20
M  V30 20 2 18 21
M  V30 21 1 19 22
M  V30 22 2 20 23
M  V30 23 1 22 24
M  V30 24 1 24 25
M  V30 25 1 24 26
M  V30 26 1 25 27
M  V30 27 1 26 28
M  V30 28 1 27 29
M  V30 29 1 29 30
M  V30 30 1 11 12
M  V30 31 2 15 17
M  V30 32 1 21 23
M  V30 33 1 28 29
M  V30 END BOND
M  V30 END CTAB
M  END
>  <Molecule Name>


>  <status>
-

>  <cas>
3313-26-6

>  <name>
THIOTHIXENE

>  <ID>
376

>  <Smiles>
CN(C)S(c(cc1)cc2c1Sc(cccc1)c1/C2=C/CCN1CCN(C)CC1)(=O)=O

$$$$

Actelion Java MolfileCreator 2.0

  0  0  0  0  0  0              0 V3000
M  V30 BEGIN CTAB
M  V30 COUNTS 18 20 0 0 0
M  V30 BEGIN ATOM
M  V30 1 O 1.732 -0.5 0.0 0
M  V30 2 C 0.866 0.0 0.0 0
M  V30 3 N 0.866 1.0 0.0 0
M  V30 4 N 0.0 -0.5 0.0 0
M  V30 5 C -0.0349 1.4338 0.0 0
M  V30 6 C 1.7669 1.4338 0.0 0
M  V30 7 C -0.2574 2.4088 0.0 0
M  V30 8 C -0.7679 0.7537 0.0 0
M  V30 9 C 1.9895 2.4088 0.0 0
M  V30 10 C 2.5 0.7537 0.0 0
M  V30 11 C 0.366 3.1906 0.0 0
M  V30 12 C -1.213 2.7035 0.0 0
M  V30 13 C -1.7235 1.0484 0.0 0
M  V30 14 C 1.366 3.1906 0.0 0
M  V30 15 C 2.945 2.7035 0.0 0
M  V30 16 C 3.4556 1.0484 0.0 0
M  V30 17 C -1.946 2.0233 0.0 0
M  V30 18 C 3.6781 2.0233 0.0 0
M  V30 END ATOM
M  V30 BEGIN BOND
M  V30 1 2 1 2
M  V30 2 1 2 3
M  V30 3 1 2 4
M  V30 4 1 3 5
M  V30 5 1 3 6
M  V30 6 2 5 7
M  V30 7 1 5 8
M  V30 8 2 6 9
M  V30 9 1 6 10
M  V30 10 1 7 11
M  V30 11 1 7 12
M  V30 12 2 8 13
M  V30 13 1 9 14
M  V30 14 1 9 15
M  V30 15 2 10 16
M  V30 16 2 12 17
M  V30 17 2 15 18
M  V30 18 2 11 14
M  V30 19 1 13 17
M  V30 20 1 16 18
M  V30 END BOND
M  V30 END CTAB
M  END
>  <Molecule Name>


>  <status>
-

>  <cas>
298-46-4

>  <name>
CARBAMAZEPINE

>  <ID>
377

>  <Smiles>
NC(N1c(cccc2)c2C=Cc2c1cccc2)=O

$$$$

Actelion Java MolfileCreator 2.0

  0  0  0  0  0  0              0 V3000
M  V30 BEGIN CTAB
M  V30 COUNTS 25 28 0 0 0
M  V30 BEGIN ATOM
M  V30 1 O 8.5144 1.1542 0.0 0
M  V30 2 C 7.5363 0.9462 0.0 0
M  V30 3 C 7.2273 -0.0047 0.0 0
M  V30 4 C 6.8672 1.6894 0.0 0
M  V30 5 C 6.2491 -0.2126 0.0 0
M  V30 6 C 5.889 1.4815 0.0 0
M  V30 7 C 5.58 0.5304 0.0 0 CFG=1
M  V30 8 C 5.9401 -1.1637 0.0 0 CFG=1
M  V30 9 C 4.6018 0.3225 0.0 0 CFG=2
M  V30 10 C 4.9109 1.2736 0.0 0
M  V30 11 C 4.962 -1.3716 0.0 0
M  V30 12 C 6.6092 -1.9068 0.0 0
M  V30 13 C 3.9327 1.0657 0.0 0 CFG=2
M  V30 14 C 4.2928 -0.6284 0.0 0 CFG=2
M  V30 15 O 4.2417 2.0167 0.0 0
M  V30 16 C 2.9546 0.8577 0.0 0
M  V30 17 C 3.3147 -0.8364 0.0 0 CFG=2
M  V30 18 C 2.6455 -0.0932 0.0 0 CFG=2
M  V30 19 C 2.8147 -1.7024 0.0 0
M  V30 20 C 1.732 -0.5 0.0 0 CFG=1
M  V30 21 C 1.9024 0.5758 0.0 0
M  V30 22 C 1.8365 -1.4945 0.0 0
M  V30 23 C 0.866 0.0 0.0 0
M  V30 24 O 0.866 1.0 0.0 0
M  V30 25 C 0.0 -0.5 0.0 0
M  V30 END ATOM
M  V30 BEGIN BOND
M  V30 1 2 1 2
M  V30 2 1 2 3
M  V30 3 1 2 4
M  V30 4 2 3 5
M  V30 5 1 4 6
M  V30 6 1 7 5
M  V30 7 1 8 5
M  V30 8 1 9 7
M  V30 9 1 7 10 CFG=1
M  V30 10 1 8 11
M  V30 11 1 8 12 CFG=3
M  V30 12 1 9 13 CFG=1
M  V30 13 1 14 9
M  V30 14 1 13 15 CFG=1
M  V30 15 1 13 16
M  V30 16 1 17 14
M  V30 17 1 18 16
M  V30 18 1 17 19 CFG=1
M  V30 19 1 20 18
M  V30 20 1 18 21 CFG=1
M  V30 21 1 19 22
M  V30 22 1 20 23 CFG=1
M  V30 23 2 23 24
M  V30 24 1 23 25
M  V30 25 1 6 7
M  V30 26 1 14 11 CFG=3
M  V30 27 1 17 18
M  V30 28 1 20 22
M  V30 END BOND
M  V30 BEGIN COLLECTION
M  V30 MDLV30/STERAC1 ATOMS=(8 7 8 9 13 14 17 18 20)
M  V30 END COLLECTION
M  V30 END CTAB
M  END
>  <Molecule Name>


>  <status>
DISCONTINUED

>  <cas>
2668-66-8

>  <name>
MEDRYSONE

>  <ID>
378

>  <Smiles>
C[C@H](C[C@H]([C@@H](CC1)[C@@](C)(C[C@H]2O)[C@@H]1C(C)=O)[C@@H]2[C@]1(C)CC2)C1=CC2=O

$$$$

Actelion Java MolfileCreator 2.0

  0  0  0  0  0  0              0 V3000
M  V30 BEGIN CTAB
M  V30 COUNTS 24 28 0 0 0
M  V30 BEGIN ATOM
M  V30 1 O 6.2063 -0.446 0.0 0
M  V30 2 C 5.2954 -0.0336 0.0 0
M  V30 3 C 5.197 0.9614 0.0 0 CFG=1
M  V30 4 C 4.4827 -0.6163 0.0 0
M  V30 5 O 5.8708 1.7004 0.0 0
M  V30 6 C 4.2861 1.3739 0.0 0 CFG=1
M  V30 7 C 3.5515 -0.1274 0.0 0
M  V30 8 C 5.3762 2.5695 0.0 0
M  V30 9 C 4.3968 2.3677 0.0 0
M  V30 10 C 3.4734 0.7912 0.0 0 CFG=1
M  V30 11 C 4.3334 0.0186 0.0 0
M  V30 12 C 5.4419 3.6266 0.0 0
M  V30 13 C 3.4831 2.8478 0.0 0
M  V30 14 O 2.7052 0.3464 0.0 0
M  V30 15 C 2.6077 1.3533 0.0 0 CFG=2
M  V30 16 C 3.4351 -0.5841 0.0 0
M  V30 17 O 6.3545 4.0355 0.0 0
M  V30 18 C 4.6558 4.2447 0.0 0
M  V30 19 C 3.7274 3.873 0.0 0
M  V30 20 C 2.6139 2.3532 0.0 0
M  V30 21 N 2.5777 -0.0656 0.0 0
M  V30 22 C 1.732 -0.5 0.0 0
M  V30 23 C 0.866 0.0 0.0 0
M  V30 24 C 0.0 -0.5 0.0 0
M  V30 END ATOM
M  V30 BEGIN BOND
M  V30 1 2 1 2
M  V30 2 1 3 2
M  V30 3 1 2 4
M  V30 4 1 3 5 CFG=3
M  V30 5 1 6 3
M  V30 6 1 4 7
M  V30 7 1 5 8
M  V30 8 1 6 9
M  V30 9 1 10 6
M  V30 10 1 6 11 CFG=1
M  V30 11 1 8 12
M  V30 12 1 9 13
M  V30 13 1 10 14 CFG=1
M  V30 14 1 15 10
M  V30 15 1 11 16
M  V30 16 1 12 17
M  V30 17 2 12 18
M  V30 18 2 13 19
M  V30 19 1 13 20
M  V30 20 1 15 21 CFG=1
M  V30 21 1 21 22
M  V30 22 1 22 23
M  V30 23 2 23 24
M  V30 24 1 7 10
M  V30 25 2 8 9
M  V30 26 1 15 20
M  V30 27 1 16 21
M  V30 28 1 18 19
M  V30 END BOND
M  V30 BEGIN COLLECTION
M  V30 MDLV30/STERAC1 ATOMS=(4 3 6 10 15)
M  V30 END COLLECTION
M  V30 END CTAB
M  END
>  <Molecule Name>


>  <status>
-

>  <cas>
465-65-6

>  <name>
NALOXONE

>  <ID>
379

>  <Smiles>
C=CCN(CC[C@@]12c(c(C3)ccc4O)c4O[C@@H]2C(CC2)=O)[C@@H]3[C@]12O

$$$$

Actelion Java MolfileCreator 2.0

  0  0  0  0  0  0              0 V3000
M  V30 BEGIN CTAB
M  V30 COUNTS 23 26 0 0 0
M  V30 BEGIN ATOM
M  V30 1 O 10.8932 2.9303 0.0 0
M  V30 2 C 9.5136 2.3161 0.0 0
M  V30 3 C 9.3558 0.8142 0.0 0
M  V30 4 C 8.2919 3.2037 0.0 0
M  V30 5 C 7.9762 0.1999 0.0 0
M  V30 6 C 6.9123 2.5895 0.0 0
M  V30 7 C 6.7544 1.0876 0.0 0 CFG=1
M  V30 8 C 7.8183 -1.3019 0.0 0
M  V30 9 C 5.3748 0.4733 0.0 0 CFG=1
M  V30 10 C 6.4387 -1.9161 0.0 0
M  V30 11 C 5.217 -1.0284 0.0 0 CFG=2
M  V30 12 C 4.1531 1.361 0.0 0
M  V30 13 C 3.8374 -1.6427 0.0 0 CFG=2
M  V30 14 C 2.7735 0.7468 0.0 0
M  V30 15 C 2.6156 -0.755 0.0 0 CFG=1
M  V30 16 C 3.3707 -3.0789 0.0 0
M  V30 17 C 1.3939 -1.6427 0.0 0 CFG=2
M  V30 18 C 1.4033 0.0961 0.0 0
M  V30 19 C 1.8605 -3.0789 0.0 0
M  V30 20 O 0.9667 -0.3434 0.0 0
M  V30 21 C -0.0423 -1.176 0.0 0
M  V30 22 C 1.3078 1.5101 0.0 0
M  V30 23 C -1.4785 -0.7093 0.0 0
M  V30 END ATOM
M  V30 BEGIN BOND
M  V30 1 2 1 2
M  V30 2 1 2 3
M  V30 3 1 2 4
M  V30 4 2 3 5
M  V30 5 1 4 6
M  V30 6 1 7 5
M  V30 7 1 5 8
M  V30 8 1 9 7
M  V30 9 1 8 10
M  V30 10 1 11 9
M  V30 11 1 9 12 CFG=1
M  V30 12 1 13 11
M  V30 13 1 12 14
M  V30 14 1 15 13
M  V30 15 1 13 16 CFG=1
M  V30 16 1 17 15
M  V30 17 1 15 18 CFG=1
M  V30 18 1 16 19
M  V30 19 1 17 20 CFG=3
M  V30 20 1 17 21
M  V30 21 1 18 22
M  V30 22 3 21 23
M  V30 23 1 7 6 CFG=3
M  V30 24 1 11 10 CFG=3
M  V30 25 1 14 15
M  V30 26 1 17 19
M  V30 END BOND
M  V30 BEGIN COLLECTION
M  V30 MDLV30/STERAC1 ATOMS=(6 7 9 11 13 15 17)
M  V30 END COLLECTION
M  V30 END CTAB
M  END
>  <Molecule Name>


>  <status>
-

>  <cas>
6533-00-2

>  <name>
NORGESTREL

>  <ID>
380

>  <Smiles>
CC[C@@](CC1)([C@H](CC2)[C@@H](CC3)[C@@H]1[C@H](CC1)C3=CC1=O)[C@@]2(C#C)O

$$$$

Actelion Java MolfileCreator 2.0

  0  0  0  0  0  0              0 V3000
M  V30 BEGIN CTAB
M  V30 COUNTS 27 29 0 0 0
M  V30 BEGIN ATOM
M  V30 1 Cl 7.3555 -2.6038 0.0 0
M  V30 2 C 6.6224 -1.9236 0.0 0
M  V30 3 C 6.8449 -0.9487 0.0 0
M  V30 4 C 5.6668 -2.2184 0.0 0
M  V30 5 C 6.1119 -0.2685 0.0 0
M  V30 6 C 4.9338 -1.5382 0.0 0
M  V30 7 C 6.4772 0.6623 0.0 0
M  V30 8 C 5.1563 -0.5633 0.0 0
M  V30 9 N 5.9772 1.5283 0.0 0
M  V30 10 C 7.4744 0.737 0.0 0
M  V30 11 N 4.3301 0.0 0.0 0
M  V30 12 C 4.9884 1.6773 0.0 0
M  V30 13 C 7.9083 1.638 0.0 0
M  V30 14 C 8.0378 -0.0891 0.0 0
M  V30 15 C 4.2553 0.9972 0.0 0
M  V30 16 C 3.4641 -0.5 0.0 0
M  V30 17 F 7.345 2.4642 0.0 0
M  V30 18 C 8.9055 1.7127 0.0 0
M  V30 19 C 9.035 -0.0144 0.0 0
M  V30 20 O 3.3245 1.3625 0.0 0
M  V30 21 C 2.598 0.0 0.0 0
M  V30 22 C 9.4688 0.8864 0.0 0
M  V30 23 N 1.732 -0.5 0.0 0
M  V30 24 C 1.732 -1.5 0.0 0
M  V30 25 C 0.866 0.0 0.0 0
M  V30 26 C 2.598 -1.9999 0.0 0
M  V30 27 C 0.0 -0.5 0.0 0
M  V30 END ATOM
M  V30 BEGIN BOND
M  V30 1 1 1 2
M  V30 2 2 2 3
M  V30 3 1 2 4
M  V30 4 1 3 5
M  V30 5 2 4 6
M  V30 6 1 5 7
M  V30 7 2 5 8
M  V30 8 2 7 9
M  V30 9 1 7 10
M  V30 10 1 8 11
M  V30 11 1 9 12
M  V30 12 2 10 13
M  V30 13 1 10 14
M  V30 14 1 11 15
M  V30 15 1 11 16
M  V30 16 1 13 17
M  V30 17 1 13 18
M  V30 18 2 14 19
M  V30 19 2 15 20
M  V30 20 1 16 21
M  V30 21 2 18 22
M  V30 22 1 21 23
M  V30 23 1 23 24
M  V30 24 1 23 25
M  V30 25 1 24 26
M  V30 26 1 25 27
M  V30 27 1 6 8
M  V30 28 1 12 15
M  V30 29 1 19 22
M  V30 END BOND
M  V30 END CTAB
M  END
>  <Molecule Name>


>  <status>
-

>  <cas>
17617-23-1

>  <name>
FLURAZEPAM

>  <ID>
381

>  <Smiles>
CCN(CC)CCN(c(ccc(Cl)c1)c1C(c(cccc1)c1F)=NC1)C1=O

$$$$

Actelion Java MolfileCreator 2.0

  0  0  0  0  0  0              0 V3000
M  V30 BEGIN CTAB
M  V30 COUNTS 24 27 0 0 0
M  V30 BEGIN ATOM
M  V30 1 Cl 5.1961 -0.5 0.0 0
M  V30 2 C 4.3301 0.0 0.0 0
M  V30 3 C 4.3301 0.9999 0.0 0
M  V30 4 C 3.4641 -0.5 0.0 0
M  V30 5 S 5.1961 1.4999 0.0 0
M  V30 6 C 3.4641 1.4999 0.0 0
M  V30 7 C 2.598 0.0 0.0 0
M  V30 8 O 5.6961 0.6339 0.0 0
M  V30 9 O 4.6961 2.366 0.0 0
M  V30 10 N 6.0621 1.9999 0.0 0
M  V30 11 C 2.598 0.9999 0.0 0
M  V30 12 N 1.732 -0.4999 0.0 0
M  V30 13 S 1.732 1.5 0.0 0
M  V30 14 C 0.866 0.0 0.0 0 CFG=1
M  V30 15 O 2.232 2.3659 0.0 0
M  V30 16 O 1.232 2.3659 0.0 0
M  V30 17 N 0.866 1.0 0.0 0
M  V30 18 C 0.0 -0.5 0.0 0 CFG=2
M  V30 19 C -0.9135 -0.0932 0.0 0 CFG=2
M  V30 20 C -0.1045 -1.4945 0.0 0
M  V30 21 C -2.2814 -0.2602 0.0 0
M  V30 22 C -1.5826 -0.8364 0.0 0
M  V30 23 C -1.0826 -1.7024 0.0 0 CFG=2
M  V30 24 C -2.3859 -1.2547 0.0 0
M  V30 END ATOM
M  V30 BEGIN BOND
M  V30 1 1 1 2
M  V30 2 2 2 3
M  V30 3 1 2 4
M  V30 4 1 3 5
M  V30 5 1 3 6
M  V30 6 2 4 7
M  V30 7 2 5 8
M  V30 8 2 5 9
M  V30 9 1 5 10
M  V30 10 2 6 11
M  V30 11 1 7 12
M  V30 12 1 11 13
M  V30 13 1 14 12 CFG=3
M  V30 14 2 13 15
M  V30 15 2 13 16
M  V30 16 1 13 17
M  V30 17 1 18 14
M  V30 18 1 19 18
M  V30 19 1 18 20 CFG=1
M  V30 20 1 19 21 CFG=1
M  V30 21 1 19 22
M  V30 22 1 23 20 CFG=1
M  V30 23 2 21 24
M  V30 24 1 7 11
M  V30 25 1 14 17
M  V30 26 1 22 23
M  V30 27 1 23 24
M  V30 END BOND
M  V30 BEGIN COLLECTION
M  V30 MDLV30/STERAC1 ATOMS=(4 14 18 19 23)
M  V30 END COLLECTION
M  V30 END CTAB
M  END
>  <Molecule Name>


>  <status>
DISCONTINUED

>  <cas>
134077-76-2

>  <name>
CYCLOTHIAZIDE

>  <ID>
382

>  <Smiles>
NS(c(cc(c(N[C@H]([C@@H](C1)[C@@H]2C=C[C@H]1C2)N1)c2)S1(=O)=O)c2Cl)(=O)=O

$$$$

Actelion Java MolfileCreator 2.0

  0  0  0  0  0  0              0 V3000
M  V30 BEGIN CTAB
M  V30 COUNTS 27 31 0 0 0
M  V30 BEGIN ATOM
M  V30 1 O 0.866 0.0 0.0 0
M  V30 2 C 1.732 -0.5 0.0 0
M  V30 3 C 0.0 -0.5 0.0 0
M  V30 4 C 2.598 0.0 0.0 0
M  V30 5 C 1.732 -1.4999 0.0 0
M  V30 6 C -0.9135 -0.0932 0.0 0
M  V30 7 C -0.1045 -1.4945 0.0 0
M  V30 8 C 3.4641 -0.5 0.0 0
M  V30 9 C 2.598 -1.9999 0.0 0
M  V30 10 C -1.5826 -0.8364 0.0 0
M  V30 11 C -1.0826 -1.7024 0.0 0
M  V30 12 C 3.4641 -1.5 0.0 0
M  V30 13 C 4.3301 0.0 0.0 0
M  V30 14 C 4.3301 -2.0 0.0 0 CFG=2
M  V30 15 C 5.1961 -0.5 0.0 0
M  V30 16 C 5.1961 -1.5 0.0 0 CFG=1
M  V30 17 C 4.3301 -3.0 0.0 0
M  V30 18 C 6.0621 -2.0 0.0 0 CFG=1
M  V30 19 C 5.1961 -3.5 0.0 0
M  V30 20 C 6.0621 -3.0 0.0 0 CFG=2
M  V30 21 C 7.0132 -1.6909 0.0 0
M  V30 22 C 7.0132 -3.309 0.0 0 CFG=2
M  V30 23 C 6.1667 -3.9945 0.0 0
M  V30 24 C 7.601 -2.5 0.0 0
M  V30 25 O 8.0009 -3.4654 0.0 0
M  V30 26 C 7.3222 -4.26 0.0 0
M  V30 27 C 7.6312 -5.2111 0.0 0
M  V30 END ATOM
M  V30 BEGIN BOND
M  V30 1 1 1 2
M  V30 2 1 1 3
M  V30 3 2 2 4
M  V30 4 1 2 5
M  V30 5 1 3 6
M  V30 6 1 3 7
M  V30 7 1 4 8
M  V30 8 2 5 9
M  V30 9 1 6 10
M  V30 10 1 7 11
M  V30 11 2 8 12
M  V30 12 1 8 13
M  V30 13 1 14 12
M  V30 14 1 13 15
M  V30 15 1 16 14
M  V30 16 1 14 17 CFG=3
M  V30 17 1 18 16
M  V30 18 1 17 19
M  V30 19 1 20 18
M  V30 20 1 18 21 CFG=3
M  V30 21 1 22 20
M  V30 22 1 20 23 CFG=3
M  V30 23 1 21 24
M  V30 24 1 22 25 CFG=3
M  V30 25 1 22 26
M  V30 26 3 26 27
M  V30 27 1 9 12
M  V30 28 1 10 11
M  V30 29 1 16 15 CFG=1
M  V30 30 1 19 20
M  V30 31 1 22 24
M  V30 END BOND
M  V30 BEGIN COLLECTION
M  V30 MDLV30/STERAC1 ATOMS=(5 14 16 18 20 22)
M  V30 END COLLECTION
M  V30 END CTAB
M  END
>  <Molecule Name>


>  <status>
DISCONTINUED

>  <cas>
152-43-2

>  <name>
QUINESTROL

>  <ID>
383

>  <Smiles>
C[C@](CC1)([C@@H](CC2)[C@H](CC3)[C@H]1c(cc1)c3cc1OC1CCCC1)[C@@]2(C#C)O

$$$$

Actelion Java MolfileCreator 2.0

  0  0  0  0  0  0              0 V3000
M  V30 BEGIN CTAB
M  V30 COUNTS 29 32 0 0 0
M  V30 BEGIN ATOM
M  V30 1 O 7.7942 0.0 0.0 0
M  V30 2 C 6.9282 -0.4999 0.0 0
M  V30 3 C 6.0621 0.0 0.0 0
M  V30 4 C 6.9282 -1.4999 0.0 0
M  V30 5 C 5.1961 -0.4999 0.0 0
M  V30 6 C 6.0621 1.0 0.0 0
M  V30 7 C 6.0621 -1.9999 0.0 0
M  V30 8 C 7.7942 -1.9999 0.0 0
M  V30 9 O 5.1961 -1.4999 0.0 0
M  V30 10 C 4.3301 0.0 0.0 0
M  V30 11 C 5.1961 1.5 0.0 0
M  V30 12 C 6.0621 -2.9999 0.0 0
M  V30 13 C 3.4641 -0.5 0.0 0
M  V30 14 C 4.3301 0.9999 0.0 0
M  V30 15 C 5.1961 -3.4999 0.0 0
M  V30 16 C 6.9282 -3.4999 0.0 0
M  V30 17 O 3.4641 -1.5 0.0 0
M  V30 18 O 2.598 0.0 0.0 0
M  V30 19 C 5.1961 -4.4999 0.0 0
M  V30 20 C 6.9282 -4.4999 0.0 0
M  V30 21 C 1.732 -0.5 0.0 0
M  V30 22 C 6.0621 -4.9999 0.0 0
M  V30 23 C 0.866 0.0 0.0 0
M  V30 24 N 0.0 -0.5 0.0 0
M  V30 25 C -0.866 0.0 0.0 0
M  V30 26 C 0.0 -1.4999 0.0 0
M  V30 27 C -1.732 -0.4999 0.0 0
M  V30 28 C -0.866 -1.9999 0.0 0
M  V30 29 C -1.732 -1.4999 0.0 0
M  V30 END ATOM
M  V30 BEGIN BOND
M  V30 1 2 1 2
M  V30 2 1 2 3
M  V30 3 1 2 4
M  V30 4 2 3 5
M  V30 5 1 3 6
M  V30 6 2 4 7
M  V30 7 1 4 8
M  V30 8 1 5 9
M  V30 9 1 5 10
M  V30 10 2 6 11
M  V30 11 1 7 12
M  V30 12 1 10 13
M  V30 13 2 10 14
M  V30 14 2 12 15
M  V30 15 1 12 16
M  V30 16 2 13 17
M  V30 17 1 13 18
M  V30 18 1 15 19
M  V30 19 2 16 20
M  V30 20 1 18 21
M  V30 21 2 19 22
M  V30 22 1 21 23
M  V30 23 1 23 24
M  V30 24 1 24 25
M  V30 25 1 24 26
M  V30 26 1 25 27
M  V30 27 1 26 28
M  V30 28 1 27 29
M  V30 29 1 7 9
M  V30 30 1 11 14
M  V30 31 1 20 22
M  V30 32 1 28 29
M  V30 END BOND
M  V30 END CTAB
M  END
>  <Molecule Name>


>  <status>
-

>  <cas>
15301-69-6

>  <name>
FLAVOXATE

>  <ID>
384

>  <Smiles>
CC1=C(c2ccccc2)Oc(c(C(OCCN2CCCCC2)=O)ccc2)c2C1=O

$$$$

Actelion Java MolfileCreator 2.0

  0  0  0  0  0  0              0 V3000
M  V30 BEGIN CTAB
M  V30 COUNTS 16 16 0 0 0
M  V30 BEGIN ATOM
M  V30 1 O 6.9282 -1.4999 0.0 0
M  V30 2 C 6.0621 -2.0 0.0 0
M  V30 3 N 6.0621 -3.0 0.0 0
M  V30 4 C 5.1961 -1.4999 0.0 0
M  V30 5 C 5.1961 -3.4999 0.0 0
M  V30 6 C 5.1961 -0.5 0.0 0
M  V30 7 C 4.3301 -1.9999 0.0 0
M  V30 8 C 4.3301 -2.9999 0.0 0
M  V30 9 C 5.1961 -4.5 0.0 0
M  V30 10 C 4.3301 0.0 0.0 0
M  V30 11 C 3.4641 -1.5 0.0 0
M  V30 12 C 3.4641 -0.5 0.0 0
M  V30 13 C 2.598 0.0 0.0 0
M  V30 14 N 1.732 -0.5 0.0 0
M  V30 15 N 0.866 0.0 0.0 0
M  V30 16 C 0.0 -0.5 0.0 0
M  V30 END ATOM
M  V30 BEGIN BOND
M  V30 1 2 1 2
M  V30 2 1 2 3
M  V30 3 1 2 4
M  V30 4 1 3 5
M  V30 5 2 4 6
M  V30 6 1 4 7
M  V30 7 1 5 8
M  V30 8 1 5 9
M  V30 9 1 6 10
M  V30 10 2 7 11
M  V30 11 2 10 12
M  V30 12 1 12 13
M  V30 13 1 13 14
M  V30 14 1 14 15
M  V30 15 1 15 16
M  V30 16 1 11 12
M  V30 END BOND
M  V30 END CTAB
M  END
>  <Molecule Name>


>  <status>
-

>  <cas>
671-16-9

>  <name>
PROCARBAZINE

>  <ID>
385

>  <Smiles>
CC(C)NC(c1ccc(CNNC)cc1)=O

$$$$

Actelion Java MolfileCreator 2.0

  0  0  0  0  0  0              0 V3000
M  V30 BEGIN CTAB
M  V30 COUNTS 22 24 0 0 0
M  V30 BEGIN ATOM
M  V30 1 N 4.3301 0.0 0.0 0
M  V30 2 C 4.2553 0.9972 0.0 0
M  V30 3 C 5.1563 -0.5633 0.0 0
M  V30 4 C 3.4641 -0.5 0.0 0
M  V30 5 C 4.9884 1.6773 0.0 0
M  V30 6 C 3.2998 1.2919 0.0 0
M  V30 7 C 6.1119 -0.2685 0.0 0
M  V30 8 C 4.9338 -1.5382 0.0 0
M  V30 9 C 2.598 0.0 0.0 0 CFG=2
M  V30 10 C 4.7659 2.6523 0.0 0
M  V30 11 C 5.9772 1.5283 0.0 0
M  V30 12 C 3.0773 2.2668 0.0 0
M  V30 13 C 6.8449 -0.9487 0.0 0
M  V30 14 C 6.4772 0.6623 0.0 0
M  V30 15 C 5.6668 -2.2184 0.0 0
M  V30 16 C 2.598 0.9999 0.0 0
M  V30 17 C 1.732 -0.5 0.0 0
M  V30 18 C 3.8103 2.947 0.0 0
M  V30 19 C 6.6224 -1.9236 0.0 0
M  V30 20 N 1.732 1.4999 0.0 0
M  V30 21 C 0.866 0.9999 0.0 0
M  V30 22 C 1.732 2.4999 0.0 0
M  V30 END ATOM
M  V30 BEGIN BOND
M  V30 1 1 1 2
M  V30 2 1 1 3
M  V30 3 1 1 4
M  V30 4 2 2 5
M  V30 5 1 2 6
M  V30 6 2 3 7
M  V30 7 1 3 8
M  V30 8 1 9 4
M  V30 9 1 5 10
M  V30 10 1 5 11
M  V30 11 2 6 12
M  V30 12 1 7 13
M  V30 13 1 7 14
M  V30 14 2 8 15
M  V30 15 1 9 16
M  V30 16 1 9 17 CFG=1
M  V30 17 2 10 18
M  V30 18 2 13 19
M  V30 19 1 16 20
M  V30 20 1 20 21
M  V30 21 1 20 22
M  V30 22 1 11 14
M  V30 23 1 12 18
M  V30 24 1 15 19
M  V30 END BOND
M  V30 BEGIN COLLECTION
M  V30 MDLV30/STERAC1 ATOMS=(1 9)
M  V30 END COLLECTION
M  V30 END CTAB
M  END
>  <Molecule Name>


>  <status>
-

>  <cas>
739-71-9

>  <name>
TRIMIPRAMINE

>  <ID>
386

>  <Smiles>
CC(CN(C)C)CN(c1c(CC2)cccc1)c1c2cccc1

$$$$

Actelion Java MolfileCreator 2.0

  0  0  0  0  0  0              0 V3000
M  V30 BEGIN CTAB
M  V30 COUNTS 17 18 0 0 0
M  V30 BEGIN ATOM
M  V30 1 O 4.4902 -2.4544 0.0 0
M  V30 2 C 4.897 -1.5408 0.0 0
M  V30 3 N 5.8915 -1.4363 0.0 0
M  V30 4 N 4.3092 -0.7318 0.0 0
M  V30 5 C 6.2982 -0.5228 0.0 0
M  V30 6 C 4.7159 0.1816 0.0 0
M  V30 7 C 3.3147 -0.8364 0.0 0 CFG=1
M  V30 8 N 7.2928 -0.4182 0.0 0
M  V30 9 C 5.7105 0.2861 0.0 0
M  V30 10 O 2.6455 -0.0932 0.0 0
M  V30 11 C 2.8147 -1.7024 0.0 0 CFG=2
M  V30 12 C 1.732 -0.5 0.0 0 CFG=2
M  V30 13 O 3.2214 -2.6159 0.0 0
M  V30 14 C 1.8365 -1.4945 0.0 0 CFG=2
M  V30 15 C 0.866 0.0 0.0 0
M  V30 16 O 1.0934 -2.1636 0.0 0
M  V30 17 O 0.0 -0.5 0.0 0
M  V30 END ATOM
M  V30 BEGIN BOND
M  V30 1 2 1 2
M  V30 2 1 2 3
M  V30 3 1 2 4
M  V30 4 2 3 5
M  V30 5 1 4 6
M  V30 6 1 7 4 CFG=3
M  V30 7 1 5 8
M  V30 8 1 5 9
M  V30 9 1 7 10
M  V30 10 1 11 7
M  V30 11 1 12 10
M  V30 12 1 11 13 CFG=3
M  V30 13 1 14 11
M  V30 14 1 12 15 CFG=3
M  V30 15 1 14 16 CFG=1
M  V30 16 1 15 17
M  V30 17 2 6 9
M  V30 18 1 12 14
M  V30 END BOND
M  V30 BEGIN COLLECTION
M  V30 MDLV30/STERAC1 ATOMS=(4 7 11 12 14)
M  V30 END COLLECTION
M  V30 END CTAB
M  END
>  <Molecule Name>


>  <status>
-

>  <cas>
147-94-4

>  <name>
CYTARABINE

>  <ID>
387

>  <Smiles>
NC(C=CN1[C@H]([C@@H]2O)O[C@@H](CO)[C@@H]2O)=NC1=O

$$$$

Actelion Java MolfileCreator 2.0

  0  0  0  0  0  0              0 V3000
M  V30 BEGIN CTAB
M  V30 COUNTS 21 23 0 0 0
M  V30 BEGIN ATOM
M  V30 1 O 9.7159 0.9934 0.0 0
M  V30 2 C 9.1679 -0.4028 0.0 0
M  V30 3 C 8.9659 2.2925 0.0 0
M  V30 4 C 7.7345 -0.8449 0.0 0
M  V30 5 C 10.2674 -1.4231 0.0 0
M  V30 6 C 7.4826 2.516 0.0 0
M  V30 7 C 6.4951 0.0 0.0 0
M  V30 8 C 7.4007 -2.3073 0.0 0
M  V30 9 C 9.9337 -2.8854 0.0 0
M  V30 10 C 6.383 1.4958 0.0 0
M  V30 11 C 7.1488 3.9784 0.0 0
M  V30 12 C 5.1961 -0.75 0.0 0
M  V30 13 C 8.5003 -3.3276 0.0 0
M  V30 14 C 4.9497 1.9379 0.0 0
M  V30 15 C 5.7155 4.4205 0.0 0
M  V30 16 C 5.1961 -2.25 0.0 0
M  V30 17 C 4.6159 3.4003 0.0 0
M  V30 18 C 3.8971 -2.9999 0.0 0
M  V30 19 N 3.8971 -4.5 0.0 0
M  V30 20 C 5.1961 -5.25 0.0 0
M  V30 21 C 2.598 -5.25 0.0 0
M  V30 END ATOM
M  V30 BEGIN BOND
M  V30 1 1 1 2
M  V30 2 1 1 3
M  V30 3 2 2 4
M  V30 4 1 2 5
M  V30 5 1 3 6
M  V30 6 1 4 7
M  V30 7 1 4 8
M  V30 8 2 5 9
M  V30 9 2 6 10
M  V30 10 1 6 11
M  V30 11 2 7 12
M  V30 12 2 8 13
M  V30 13 1 10 14
M  V30 14 2 11 15
M  V30 15 1 12 16
M  V30 16 2 14 17
M  V30 17 1 16 18
M  V30 18 1 18 19
M  V30 19 1 19 20
M  V30 20 1 19 21
M  V30 21 1 7 10
M  V30 22 1 9 13
M  V30 23 1 15 17
M  V30 END BOND
M  V30 END CTAB
M  END
>  <Molecule Name>


>  <status>
-

>  <cas>
1668-19-5

>  <name>
DOXEPIN

>  <ID>
388

>  <Smiles>
CN(C)CC/C=C1\c(cccc2)c2OCc2c1cccc2

$$$$

Actelion Java MolfileCreator 2.0

  0  0  0  0  0  0              0 V3000
M  V30 BEGIN CTAB
M  V30 COUNTS 16 17 0 0 0
M  V30 BEGIN ATOM
M  V30 1 Cl 2.598 0.7499 0.0 0
M  V30 2 C 2.598 -0.75 0.0 0
M  V30 3 C 1.299 -1.5 0.0 0
M  V30 4 C 3.8971 -1.5 0.0 0
M  V30 5 C 1.299 -3.0 0.0 0
M  V30 6 C 0.0 -0.75 0.0 0 CFG=1
M  V30 7 C 3.8971 -3.0 0.0 0
M  V30 8 C 2.598 -3.75 0.0 0
M  V30 9 N 1.299 0.0 0.0 0
M  V30 10 C -1.299 0.0 0.0 0
M  V30 11 C 0.0 -2.25 0.0 0
M  V30 12 C 1.299 1.5 0.0 0
M  V30 13 O -1.299 1.5 0.0 0
M  V30 14 C -2.598 -0.7499 0.0 0
M  V30 15 C -1.299 -2.9999 0.0 0
M  V30 16 C -2.598 -2.2499 0.0 0
M  V30 END ATOM
M  V30 BEGIN BOND
M  V30 1 1 1 2
M  V30 2 2 2 3
M  V30 3 1 2 4
M  V30 4 1 3 5
M  V30 5 1 6 3 CFG=3
M  V30 6 2 4 7
M  V30 7 2 5 8
M  V30 8 1 6 9
M  V30 9 1 6 10
M  V30 10 1 6 11
M  V30 11 1 9 12
M  V30 12 2 10 13
M  V30 13 1 10 14
M  V30 14 1 11 15
M  V30 15 1 14 16
M  V30 16 1 7 8
M  V30 17 1 15 16
M  V30 END BOND
M  V30 BEGIN COLLECTION
M  V30 MDLV30/STERAC1 ATOMS=(1 6)
M  V30 END COLLECTION
M  V30 END CTAB
M  END
>  <Molecule Name>


>  <status>
-

>  <cas>
33643-46-8

>  <name>
ESKETAMINE

>  <ID>
389

>  <Smiles>
CNC(CCCC1)(C1=O)c(cccc1)c1Cl

$$$$

Actelion Java MolfileCreator 2.0

  0  0  0  0  0  0              0 V3000
M  V30 BEGIN CTAB
M  V30 COUNTS 29 31 0 0 0
M  V30 BEGIN ATOM
M  V30 1 O 2.598 -0.75 0.0 0
M  V30 2 C 3.8971 0.0 0.0 0
M  V30 3 N 5.1961 -0.7499 0.0 0
M  V30 4 C 3.8971 1.5 0.0 0 CFG=1
M  V30 5 C 5.1961 -2.2499 0.0 0
M  V30 6 C 6.4951 0.0 0.0 0
M  V30 7 C 5.1961 2.25 0.0 0 CFG=2
M  V30 8 C 2.598 2.2499 0.0 0
M  V30 9 C 3.8971 -3.0 0.0 0
M  V30 10 C 7.7942 -0.7499 0.0 0
M  V30 11 O 6.4951 1.5 0.0 0
M  V30 12 C 5.1961 3.75 0.0 0
M  V30 13 N 2.598 3.75 0.0 0
M  V30 14 C 7.7942 2.25 0.0 0
M  V30 15 C 3.8971 4.5 0.0 0 CFG=2
M  V30 16 C 1.299 4.5 0.0 0
M  V30 17 O 7.7942 3.75 0.0 0
M  V30 18 C 9.0932 1.5 0.0 0
M  V30 19 C 3.8971 6.0 0.0 0
M  V30 20 C 1.299 5.9999 0.0 0
M  V30 21 C 2.598 6.7499 0.0 0
M  V30 22 C 5.1961 6.75 0.0 0
M  V30 23 C 2.598 8.25 0.0 0
M  V30 24 C 5.1961 8.25 0.0 0
M  V30 25 C 3.8971 8.9999 0.0 0
M  V30 26 O 6.4951 9.0 0.0 0
M  V30 27 O 3.8971 10.5 0.0 0
M  V30 28 C 6.4951 10.5 0.0 0
M  V30 29 C 2.598 11.2499 0.0 0
M  V30 END ATOM
M  V30 BEGIN BOND
M  V30 1 2 1 2
M  V30 2 1 2 3
M  V30 3 1 4 2 CFG=3
M  V30 4 1 3 5
M  V30 5 1 3 6
M  V30 6 1 7 4
M  V30 7 1 4 8
M  V30 8 1 5 9
M  V30 9 1 6 10
M  V30 10 1 7 11 CFG=1
M  V30 11 1 7 12
M  V30 12 1 8 13
M  V30 13 1 11 14
M  V30 14 1 15 12
M  V30 15 1 13 16
M  V30 16 2 14 17
M  V30 17 1 14 18
M  V30 18 1 15 19
M  V30 19 1 16 20
M  V30 20 2 19 21
M  V30 21 1 19 22
M  V30 22 1 21 23
M  V30 23 2 22 24
M  V30 24 2 23 25
M  V30 25 1 24 26
M  V30 26 1 25 27
M  V30 27 1 26 28
M  V30 28 1 27 29
M  V30 29 1 15 13 CFG=3
M  V30 30 1 20 21
M  V30 31 1 24 25
M  V30 END BOND
M  V30 BEGIN COLLECTION
M  V30 MDLV30/STERAC1 ATOMS=(3 4 7 15)
M  V30 END COLLECTION
M  V30 END CTAB
M  END
>  <Molecule Name>


>  <status>
DISCONTINUED

>  <cas>
23844-24-8

>  <name>
BENZQUINAMIDE

>  <ID>
390

>  <Smiles>
CCN(CC)C([C@H](CN(CC1)[C@@H](C2)c(cc3OC)c1cc3OC)[C@@H]2OC(C)=O)=O

$$$$

Actelion Java MolfileCreator 2.0

  0  0  0  0  0  0              0 V3000
M  V30 BEGIN CTAB
M  V30 COUNTS 13 14 0 0 0
M  V30 BEGIN ATOM
M  V30 1 O 0.866 0.0 0.0 0
M  V30 2 C 0.0 -0.5 0.0 0
M  V30 3 N -0.9135 -0.0932 0.0 0
M  V30 4 C -0.1045 -1.4945 0.0 0 CFG=2
M  V30 5 C -1.5826 -0.8364 0.0 0
M  V30 6 O -1.0826 -1.7024 0.0 0
M  V30 7 C 0.6386 -2.1636 0.0 0
M  V30 8 N -2.5771 -0.7318 0.0 0
M  V30 9 C 0.4307 -3.1418 0.0 0
M  V30 10 C 1.5896 -1.8546 0.0 0
M  V30 11 C 1.1738 -3.8109 0.0 0
M  V30 12 C 2.3328 -2.5237 0.0 0
M  V30 13 C 2.1249 -3.5019 0.0 0
M  V30 END ATOM
M  V30 BEGIN BOND
M  V30 1 2 1 2
M  V30 2 1 2 3
M  V30 3 1 4 2
M  V30 4 2 3 5
M  V30 5 1 4 6
M  V30 6 1 4 7 CFG=1
M  V30 7 1 5 8
M  V30 8 2 7 9
M  V30 9 1 7 10
M  V30 10 1 9 11
M  V30 11 2 10 12
M  V30 12 2 11 13
M  V30 13 1 5 6
M  V30 14 1 12 13
M  V30 END BOND
M  V30 BEGIN COLLECTION
M  V30 MDLV30/STERAC1 ATOMS=(1 4)
M  V30 END COLLECTION
M  V30 END CTAB
M  END
>  <Molecule Name>


>  <status>
DISCONTINUED

>  <cas>
2152-34-3

>  <name>
PEMOLINE

>  <ID>
391

>  <Smiles>
NC(OC1c2ccccc2)=NC1=O

$$$$

Actelion Java MolfileCreator 2.0

  0  0  0  0  0  0              0 V3000
M  V30 BEGIN CTAB
M  V30 COUNTS 18 19 0 0 0
M  V30 BEGIN ATOM
M  V30 1 Cl 1.732 1.4999 0.0 0
M  V30 2 C 2.598 1.0 0.0 0
M  V30 3 C 2.598 0.0 0.0 0
M  V30 4 C 3.4641 1.4999 0.0 0
M  V30 5 C 3.4641 -0.5 0.0 0
M  V30 6 C 1.732 -0.5 0.0 0 CFG=2
M  V30 7 C 4.3301 1.0 0.0 0
M  V30 8 C 4.3301 0.0 0.0 0
M  V30 9 C 1.732 -1.5 0.0 0
M  V30 10 C 0.866 0.0 0.0 0
M  V30 11 C 0.866 -1.9999 0.0 0
M  V30 12 C 2.598 -2.0 0.0 0
M  V30 13 Cl 0.866 1.0 0.0 0
M  V30 14 Cl 0.0 -0.5 0.0 0
M  V30 15 C 0.866 -2.9999 0.0 0
M  V30 16 C 2.598 -3.0 0.0 0
M  V30 17 C 1.732 -3.5 0.0 0
M  V30 18 Cl 1.732 -4.5 0.0 0
M  V30 END ATOM
M  V30 BEGIN BOND
M  V30 1 1 1 2
M  V30 2 2 2 3
M  V30 3 1 2 4
M  V30 4 1 3 5
M  V30 5 1 6 3 CFG=3
M  V30 6 2 4 7
M  V30 7 2 5 8
M  V30 8 1 6 9
M  V30 9 1 6 10
M  V30 10 2 9 11
M  V30 11 1 9 12
M  V30 12 1 10 13
M  V30 13 1 10 14
M  V30 14 1 11 15
M  V30 15 2 12 16
M  V30 16 2 15 17
M  V30 17 1 17 18
M  V30 18 1 7 8
M  V30 19 1 16 17
M  V30 END BOND
M  V30 BEGIN COLLECTION
M  V30 MDLV30/STERAC1 ATOMS=(1 6)
M  V30 END COLLECTION
M  V30 END CTAB
M  END
>  <Molecule Name>


>  <status>
-

>  <cas>
53-19-0

>  <name>
MITOTANE

>  <ID>
392

>  <Smiles>
ClC(C(c(cc1)ccc1Cl)c(cccc1)c1Cl)Cl

$$$$

Actelion Java MolfileCreator 2.0

  0  0  0  0  0  0              0 V3000
M  V30 BEGIN CTAB
M  V30 COUNTS 35 39 0 0 0
M  V30 BEGIN ATOM
M  V30 1 F 2.1418 3.1104 0.0 0
M  V30 2 C 3.6452 3.4573 0.0 0 CFG=2
M  V30 3 C 2.7566 4.6803 0.0 0 CFG=2
M  V30 4 C 3.0303 2.0764 0.0 0 CFG=1
M  V30 5 C 5.1485 3.6153 0.0 0 CFG=2
M  V30 6 C 3.3715 6.0612 0.0 0
M  V30 7 C 1.2533 4.5223 0.0 0
M  V30 8 C 2.1418 3.6772 0.0 0
M  V30 9 O 1.5269 1.9184 0.0 0
M  V30 10 C 3.9188 0.8534 0.0 0
M  V30 11 C 6.037 2.3924 0.0 0 CFG=1
M  V30 12 C 5.7634 4.9963 0.0 0
M  V30 13 C 2.4829 7.2842 0.0 0
M  V30 14 C 4.8748 6.2193 0.0 0 CFG=2
M  V30 15 C 0.3647 5.7452 0.0 0
M  V30 16 C 5.4222 1.0114 0.0 0 CFG=1
M  V30 17 C 7.5404 2.2344 0.0 0
M  V30 18 C 0.9796 7.1262 0.0 0
M  V30 19 F 5.4897 7.6002 0.0 0
M  V30 20 C 6.5456 0.0 0.0 0 CFG=1
M  V30 21 C 4.9362 -0.2562 0.0 0
M  V30 22 C 7.8547 0.7558 0.0 0 CFG=2
M  V30 23 O 0.0911 8.3491 0.0 0
M  V30 24 O 6.8599 -1.4786 0.0 0
M  V30 25 C 5.281 -0.8299 0.0 0
M  V30 26 O 8.9781 -0.2556 0.0 0
M  V30 27 C 8.3632 -1.6366 0.0 0
M  V30 28 O 3.9273 0.0 0.0 0
M  V30 29 C 5.2364 -2.2674 0.0 0
M  V30 30 C 8.3632 -3.1482 0.0 0
M  V30 31 C 9.6723 -2.3924 0.0 0
M  V30 32 O 3.9273 -3.0232 0.0 0
M  V30 33 C 3.9273 -4.5349 0.0 0
M  V30 34 O 5.2364 -5.2907 0.0 0
M  V30 35 C 2.6182 -5.2907 0.0 0
M  V30 END ATOM
M  V30 BEGIN BOND
M  V30 1 1 2 1 CFG=1
M  V30 2 1 3 2
M  V30 3 1 4 2
M  V30 4 1 5 2
M  V30 5 1 3 6
M  V30 6 1 3 7
M  V30 7 1 3 8 CFG=3
M  V30 8 1 4 9 CFG=3
M  V30 9 1 4 10
M  V30 10 1 11 5
M  V30 11 1 5 12 CFG=1
M  V30 12 2 6 13
M  V30 13 1 14 6
M  V30 14 2 7 15
M  V30 15 1 16 10
M  V30 16 1 11 17 CFG=3
M  V30 17 1 13 18
M  V30 18 1 14 19 CFG=1
M  V30 19 1 20 16
M  V30 20 1 16 21 CFG=3
M  V30 21 1 22 17
M  V30 22 2 18 23
M  V30 23 1 20 24
M  V30 24 1 20 25 CFG=3
M  V30 25 1 22 26 CFG=1
M  V30 26 1 24 27
M  V30 27 2 25 28
M  V30 28 1 25 29
M  V30 29 1 27 30
M  V30 30 1 27 31
M  V30 31 1 29 32
M  V30 32 1 32 33
M  V30 33 2 33 34
M  V30 34 1 33 35
M  V30 35 1 11 16
M  V30 36 1 12 14
M  V30 37 1 15 18
M  V30 38 1 20 22
M  V30 39 1 26 27
M  V30 END BOND
M  V30 BEGIN COLLECTION
M  V30 MDLV30/STERAC1 ATOMS=(9 2 3 4 5 11 14 16 20 22)
M  V30 END COLLECTION
M  V30 END CTAB
M  END
>  <Molecule Name>


>  <status>
-

>  <cas>
356-12-7

>  <name>
FLUOCINONIDE

>  <ID>
393

>  <Smiles>
CC(C)(O[C@@H]1C[C@@H]([C@H](C[C@@H](C([C@]2(C)C=C3)=CC3=O)F)[C@@]22F)[C@]3(C)C[C@@H]2O)O[C@@]13C(COC(C)=O)=O

$$$$

Actelion Java MolfileCreator 2.0

  0  0  0  0  0  0              0 V3000
M  V30 BEGIN CTAB
M  V30 COUNTS 14 14 0 0 0
M  V30 BEGIN ATOM
M  V30 1 O 5.1961 -0.75 0.0 0
M  V30 2 C 3.8971 0.0 0.0 0
M  V30 3 O 3.8971 1.5 0.0 0 CHG=-1
M  V30 4 C 2.598 -0.75 0.0 0 CFG=1
M  V30 5 N 2.598 -2.25 0.0 0
M  V30 6 C 1.299 0.0 0.0 0
M  V30 7 C 0.0 -0.75 0.0 0
M  V30 8 C -1.299 0.0 0.0 0
M  V30 9 C 0.0 -2.2499 0.0 0
M  V30 10 C -2.598 -0.7499 0.0 0
M  V30 11 C -1.299 -2.9999 0.0 0
M  V30 12 O -3.8971 0.0 0.0 0
M  V30 13 C -2.598 -2.2499 0.0 0
M  V30 14 O -3.8971 -2.9999 0.0 0
M  V30 END ATOM
M  V30 BEGIN BOND
M  V30 1 2 1 2
M  V30 2 1 2 3
M  V30 3 1 4 2
M  V30 4 1 4 5 CFG=1
M  V30 5 1 4 6
M  V30 6 1 6 7
M  V30 7 2 7 8
M  V30 8 1 7 9
M  V30 9 1 8 10
M  V30 10 2 9 11
M  V30 11 1 10 12
M  V30 12 2 10 13
M  V30 13 1 13 14
M  V30 14 1 11 13
M  V30 END BOND
M  V30 BEGIN COLLECTION
M  V30 MDLV30/STERAC1 ATOMS=(1 4)
M  V30 END COLLECTION
M  V30 END CTAB
M  END
>  <Molecule Name>


>  <status>
-

>  <cas>
59-92-7

>  <name>
LEVODOPA

>  <ID>
394

>  <Smiles>
NC(Cc(cc1)cc(O)c1O)C([O-])=O

$$$$

Actelion Java MolfileCreator 2.0

  0  0  0  0  0  0              0 V3000
M  V30 BEGIN CTAB
M  V30 COUNTS 22 22 0 0 0
M  V30 BEGIN ATOM
M  V30 1 O 12.9904 -0.75 0.0 0
M  V30 2 C 11.6913 0.0 0.0 0
M  V30 3 O 11.6913 1.5 0.0 0 CHG=-1
M  V30 4 C 10.3923 -0.75 0.0 0
M  V30 5 C 9.0932 0.0 0.0 0
M  V30 6 C 7.7942 -0.75 0.0 0
M  V30 7 C 9.0932 1.5 0.0 0
M  V30 8 C 6.4952 0.0 0.0 0
M  V30 9 C 5.1961 -0.75 0.0 0
M  V30 10 C 3.8971 0.0 0.0 0
M  V30 11 C 2.598 -0.75 0.0 0
M  V30 12 C 3.8971 1.5 0.0 0
M  V30 13 C 1.299 0.0 0.0 0
M  V30 14 C 0.0 -0.75 0.0 0
M  V30 15 C -1.299 0.0 0.0 0
M  V30 16 C 0.0 -2.25 0.0 0
M  V30 17 C -2.598 -0.75 0.0 0
M  V30 18 C -1.299 1.5 0.0 0
M  V30 19 C -1.299 -3.0 0.0 0
M  V30 20 C 0.7499 -3.549 0.0 0
M  V30 21 C 1.4999 -2.2499 0.0 0
M  V30 22 C -2.598 -2.25 0.0 0
M  V30 END ATOM
M  V30 BEGIN BOND
M  V30 1 2 1 2
M  V30 2 1 2 3
M  V30 3 1 2 4
M  V30 4 2 4 5
M  V30 5 1 5 6
M  V30 6 1 5 7
M  V30 7 2 6 8
M  V30 8 1 8 9
M  V30 9 2 9 10
M  V30 10 1 10 11
M  V30 11 1 10 12
M  V30 12 2 11 13
M  V30 13 1 13 14
M  V30 14 2 14 15
M  V30 15 1 14 16
M  V30 16 1 15 17
M  V30 17 1 15 18
M  V30 18 1 16 19
M  V30 19 1 16 20
M  V30 20 1 16 21
M  V30 21 1 17 22
M  V30 22 1 19 22
M  V30 END BOND
M  V30 END CTAB
M  END
>  <Molecule Name>


>  <status>
-

>  <cas>
302-79-4

>  <name>
TRETINOIN

>  <ID>
395

>  <Smiles>
CC1(C)C(/C=C/C(/C)=C/C=C/C(/C)=C/C([O-])=O)=C(C)CCC1

$$$$

Actelion Java MolfileCreator 2.0

  0  0  0  0  0  0              0 V3000
M  V30 BEGIN CTAB
M  V30 COUNTS 17 18 0 0 0
M  V30 BEGIN ATOM
M  V30 1 F 6.4793 -2.2453 0.0 0
M  V30 2 C 5.8915 -1.4363 0.0 0
M  V30 3 C 6.2982 -0.5228 0.0 0
M  V30 4 C 4.897 -1.5408 0.0 0
M  V30 5 O 7.2928 -0.4182 0.0 0
M  V30 6 N 5.7105 0.2861 0.0 0
M  V30 7 N 4.3092 -0.7318 0.0 0
M  V30 8 C 4.7159 0.1816 0.0 0
M  V30 9 C 3.3147 -0.8364 0.0 0 CFG=1
M  V30 10 O 4.1282 0.9906 0.0 0
M  V30 11 O 2.6455 -0.0932 0.0 0
M  V30 12 C 2.8147 -1.7024 0.0 0
M  V30 13 C 1.732 -0.5 0.0 0 CFG=2
M  V30 14 C 1.8365 -1.4945 0.0 0 CFG=2
M  V30 15 C 0.866 0.0 0.0 0
M  V30 16 O 1.0934 -2.1636 0.0 0
M  V30 17 O 0.0 -0.5 0.0 0
M  V30 END ATOM
M  V30 BEGIN BOND
M  V30 1 1 1 2
M  V30 2 1 2 3
M  V30 3 2 2 4
M  V30 4 2 3 5
M  V30 5 1 3 6
M  V30 6 1 4 7
M  V30 7 1 6 8
M  V30 8 1 9 7 CFG=3
M  V30 9 2 8 10
M  V30 10 1 9 11
M  V30 11 1 9 12
M  V30 12 1 13 11
M  V30 13 1 14 12
M  V30 14 1 13 15 CFG=3
M  V30 15 1 14 16 CFG=1
M  V30 16 1 15 17
M  V30 17 1 7 8
M  V30 18 1 13 14
M  V30 END BOND
M  V30 BEGIN COLLECTION
M  V30 MDLV30/STERAC1 ATOMS=(3 9 13 14)
M  V30 END COLLECTION
M  V30 END CTAB
M  END
>  <Molecule Name>


>  <status>
-

>  <cas>
50-91-9

>  <name>
FLOXURIDINE

>  <ID>
396

>  <Smiles>
OC[C@@H]([C@@H](C1)O)O[C@@H]1N(C=C(C(N1)=O)F)C1=O

$$$$

Actelion Java MolfileCreator 2.0

  0  0  0  0  0  0              0 V3000
M  V30 BEGIN CTAB
M  V30 COUNTS 14 14 0 0 0
M  V30 BEGIN ATOM
M  V30 1 I 6.4951 1.5 0.0 0
M  V30 2 C 5.1961 0.75 0.0 0
M  V30 3 C 3.8971 0.0 0.0 0
M  V30 4 C 2.598 -0.75 0.0 0
M  V30 5 O 1.299 0.0 0.0 0
M  V30 6 C 0.0 -0.75 0.0 0
M  V30 7 C -1.299 0.0 0.0 0
M  V30 8 C 0.0 -2.2499 0.0 0
M  V30 9 Cl -1.299 1.5 0.0 0
M  V30 10 C -2.598 -0.7499 0.0 0
M  V30 11 C -1.299 -2.9999 0.0 0
M  V30 12 C -2.598 -2.2499 0.0 0
M  V30 13 Cl -1.299 -4.4999 0.0 0
M  V30 14 Cl -3.8971 -2.9999 0.0 0
M  V30 END ATOM
M  V30 BEGIN BOND
M  V30 1 1 1 2
M  V30 2 3 2 3
M  V30 3 1 3 4
M  V30 4 1 4 5
M  V30 5 1 5 6
M  V30 6 2 6 7
M  V30 7 1 6 8
M  V30 8 1 7 9
M  V30 9 1 7 10
M  V30 10 2 8 11
M  V30 11 2 10 12
M  V30 12 1 11 13
M  V30 13 1 12 14
M  V30 14 1 11 12
M  V30 END BOND
M  V30 END CTAB
M  END
>  <Molecule Name>


>  <status>
DISCONTINUED

>  <cas>
777-11-7

>  <name>
HALOPROGIN

>  <ID>
397

>  <Smiles>
Clc(cc(c(Cl)c1)Cl)c1OCC#CI

$$$$

Actelion Java MolfileCreator 2.0

  0  0  0  0  0  0              0 V3000
M  V30 BEGIN CTAB
M  V30 COUNTS 16 16 0 0 0
M  V30 BEGIN ATOM
M  V30 1 O 5.1961 -3.5 0.0 0
M  V30 2 C 4.3301 -3.0 0.0 0
M  V30 3 C 4.3301 -2.0 0.0 0
M  V30 4 C 3.4641 -3.5 0.0 0
M  V30 5 C 3.4641 -1.5 0.0 0
M  V30 6 C 2.598 -3.0 0.0 0
M  V30 7 C 2.598 -2.0 0.0 0
M  V30 8 C 3.4641 -0.5 0.0 0 CFG=2
M  V30 9 C 2.598 0.0 0.0 0 CFG=1
M  V30 10 C 4.3301 0.0 0.0 0
M  V30 11 C 1.732 -0.5 0.0 0
M  V30 12 C 2.598 1.0 0.0 0
M  V30 13 C 5.1961 -0.5 0.0 0
M  V30 14 N 0.866 0.0 0.0 0
M  V30 15 C 0.866 1.0 0.0 0
M  V30 16 C 0.0 -0.5 0.0 0
M  V30 END ATOM
M  V30 BEGIN BOND
M  V30 1 1 1 2
M  V30 2 2 2 3
M  V30 3 1 2 4
M  V30 4 1 3 5
M  V30 5 2 4 6
M  V30 6 2 5 7
M  V30 7 1 8 5
M  V30 8 1 9 8
M  V30 9 1 8 10 CFG=3
M  V30 10 1 9 11
M  V30 11 1 9 12 CFG=1
M  V30 12 1 10 13
M  V30 13 1 11 14
M  V30 14 1 14 15
M  V30 15 1 14 16
M  V30 16 1 6 7
M  V30 END BOND
M  V30 BEGIN COLLECTION
M  V30 MDLV30/STERAC1 ATOMS=(2 8 9)
M  V30 END COLLECTION
M  V30 END CTAB
M  END
>  <Molecule Name>


>  <status>
-

>  <cas>
175591-23-8

>  <name>
TAPENTADOL

>  <ID>
398

>  <Smiles>
CC[C@@H]([C@H](C)CN(C)C)c1cccc(O)c1

$$$$

Actelion Java MolfileCreator 2.0

  0  0  0  0  0  0              0 V3000
M  V30 BEGIN CTAB
M  V30 COUNTS 10 9 0 0 0
M  V30 BEGIN ATOM
M  V30 1 O 4.3301 0.0 0.0 0
M  V30 2 C 3.4641 -0.5 0.0 0
M  V30 3 O 2.598 0.0 0.0 0
M  V30 4 N 3.4641 -1.5 0.0 0
M  V30 5 C 1.732 -0.5 0.0 0
M  V30 6 C 0.866 0.0 0.0 0
M  V30 7 N 0.0 -0.5 0.0 0 CHG=1
M  V30 8 C 0.4999 -1.366 0.0 0
M  V30 9 C -0.866 -0.9999 0.0 0
M  V30 10 C -0.4999 0.366 0.0 0
M  V30 END ATOM
M  V30 BEGIN BOND
M  V30 1 2 1 2
M  V30 2 1 2 3
M  V30 3 1 2 4
M  V30 4 1 3 5
M  V30 5 1 5 6
M  V30 6 1 6 7
M  V30 7 1 7 8
M  V30 8 1 7 9
M  V30 9 1 7 10
M  V30 END BOND
M  V30 END CTAB
M  END
>  <Molecule Name>


>  <status>
-

>  <cas>
51-83-2

>  <name>
CARBACHOL

>  <ID>
399

>  <Smiles>
C[N+](C)(C)CCOC(N)=O

$$$$

Actelion Java MolfileCreator 2.0

  0  0  0  0  0  0              0 V3000
M  V30 BEGIN CTAB
M  V30 COUNTS 28 31 0 0 0
M  V30 BEGIN ATOM
M  V30 1 O -2.9419 -10.8159 0.0 0
M  V30 2 C -2.4777 -9.3874 0.0 0
M  V30 3 C -3.4828 -8.2712 0.0 0
M  V30 4 C -1.0085 -9.0751 0.0 0
M  V30 5 C -3.0186 -6.8426 0.0 0
M  V30 6 C -0.5444 -7.6466 0.0 0
M  V30 7 C -4.0237 -5.7264 0.0 0
M  V30 8 C -1.5494 -6.5303 0.0 0 CFG=1
M  V30 9 C -3.5595 -4.2979 0.0 0
M  V30 10 C -5.4929 -6.0387 0.0 0
M  V30 11 C -1.0853 -5.1018 0.0 0 CFG=1
M  V30 12 C -0.0802 -6.2181 0.0 0
M  V30 13 C -2.0903 -3.9856 0.0 0 CFG=1
M  V30 14 C 0.3838 -4.7895 0.0 0
M  V30 15 C -1.6262 -2.5571 0.0 0 CFG=2
M  V30 16 C 0.7901 -3.4118 0.0 0
M  V30 17 C -0.157 -2.2448 0.0 0 CFG=1
M  V30 18 C -2.3772 -1.2563 0.0 0
M  V30 19 C 0.0 -0.751 0.0 0 CFG=2
M  V30 20 C 1.4056 -1.9567 0.0 0
M  V30 21 C -1.3721 -0.14 0.0 0
M  V30 22 O 1.3008 0.0 0.0 0
M  V30 23 C 1.2285 -1.4002 0.0 0
M  V30 24 C 1.3008 1.502 0.0 0
M  V30 25 O 1.2969 -2.9675 0.0 0
M  V30 26 C 2.598 -0.8871 0.0 0
M  V30 27 O 2.6016 2.253 0.0 0
M  V30 28 C 0.0 2.253 0.0 0
M  V30 END ATOM
M  V30 BEGIN BOND
M  V30 1 2 1 2
M  V30 2 1 2 3
M  V30 3 1 2 4
M  V30 4 2 3 5
M  V30 5 1 4 6
M  V30 6 1 5 7
M  V30 7 1 8 5
M  V30 8 2 7 9
M  V30 9 1 7 10
M  V30 10 1 11 8
M  V30 11 1 8 12 CFG=1
M  V30 12 1 13 9 CFG=3
M  V30 13 1 11 14 CFG=1
M  V30 14 1 15 13
M  V30 15 1 14 16
M  V30 16 1 17 15
M  V30 17 1 15 18 CFG=1
M  V30 18 1 19 17
M  V30 19 1 17 20 CFG=1
M  V30 20 1 18 21
M  V30 21 1 19 22
M  V30 22 1 19 23 CFG=1
M  V30 23 1 22 24
M  V30 24 2 23 25
M  V30 25 1 23 26
M  V30 26 2 24 27
M  V30 27 1 24 28
M  V30 28 1 6 8
M  V30 29 1 11 13
M  V30 30 1 16 17
M  V30 31 1 19 21
M  V30 END BOND
M  V30 BEGIN COLLECTION
M  V30 MDLV30/STERAC1 ATOMS=(6 8 11 13 15 17 19)
M  V30 END COLLECTION
M  V30 END CTAB
M  END
>  <Molecule Name>


>  <status>
-

>  <cas>
595-33-5

>  <name>
MEGESTROL ACETATE

>  <ID>
400

>  <Smiles>
C[C@@](CC[C@H]1[C@]2(C)CC3)([C@H](CC4)[C@H]1C=C(C)C2=CC3=O)[C@@]4(C(C)=O)OC(C)=O

$$$$

Actelion Java MolfileCreator 2.0

  0  0  0  0  0  0              0 V3000
M  V30 BEGIN CTAB
M  V30 COUNTS 34 37 0 0 0
M  V30 BEGIN ATOM
M  V30 1 O 7.7942 2.25 0.0 0
M  V30 2 C 9.0932 1.5 0.0 0
M  V30 3 C 9.0932 0.0 0.0 0
M  V30 4 C 10.3923 2.2499 0.0 0
M  V30 5 C 10.3923 -0.75 0.0 0
M  V30 6 C 7.7942 -0.75 0.0 0
M  V30 7 C 11.6913 1.5 0.0 0
M  V30 8 O 11.6913 0.0 0.0 0
M  V30 9 C 10.3923 -2.25 0.0 0
M  V30 10 O 6.4951 0.0 0.0 0
M  V30 11 C 7.7942 -2.25 0.0 0
M  V30 12 C 12.9903 2.25 0.0 0
M  V30 13 C 9.0932 -3.0 0.0 0
M  V30 14 C 5.1961 -0.75 0.0 0
M  V30 15 O 14.2894 1.4999 0.0 0
M  V30 16 O 12.9903 3.7499 0.0 0 CHG=-1
M  V30 17 C 3.8971 0.0 0.0 0
M  V30 18 O 3.8971 1.5 0.0 0
M  V30 19 C 2.598 -0.75 0.0 0
M  V30 20 O 1.299 0.0 0.0 0
M  V30 21 C 0.0 -0.75 0.0 0
M  V30 22 C -1.299 0.0 0.0 0
M  V30 23 C 0.0 -2.25 0.0 0
M  V30 24 C -1.299 1.5 0.0 0
M  V30 25 C -2.598 -0.7499 0.0 0
M  V30 26 C -1.299 -2.9999 0.0 0
M  V30 27 O 0.0 2.25 0.0 0
M  V30 28 C -2.598 2.25 0.0 0
M  V30 29 O -3.8971 0.0 0.0 0
M  V30 30 C -2.598 -2.2499 0.0 0
M  V30 31 C -3.8971 1.5 0.0 0
M  V30 32 C -5.1961 2.25 0.0 0
M  V30 33 O -5.1961 3.75 0.0 0
M  V30 34 O -6.4951 1.5 0.0 0 CHG=-1
M  V30 END ATOM
M  V30 BEGIN BOND
M  V30 1 2 1 2
M  V30 2 1 2 3
M  V30 3 1 2 4
M  V30 4 2 3 5
M  V30 5 1 3 6
M  V30 6 2 4 7
M  V30 7 1 5 8
M  V30 8 1 5 9
M  V30 9 1 6 10
M  V30 10 2 6 11
M  V30 11 1 7 12
M  V30 12 2 9 13
M  V30 13 1 10 14
M  V30 14 2 12 15
M  V30 15 1 12 16
M  V30 16 1 14 17
M  V30 17 1 17 18
M  V30 18 1 17 19
M  V30 19 1 19 20
M  V30 20 1 20 21
M  V30 21 2 21 22
M  V30 22 1 21 23
M  V30 23 1 22 24
M  V30 24 1 22 25
M  V30 25 2 23 26
M  V30 26 2 24 27
M  V30 27 1 24 28
M  V30 28 1 25 29
M  V30 29 2 25 30
M  V30 30 2 28 31
M  V30 31 1 31 32
M  V30 32 2 32 33
M  V30 33 1 32 34
M  V30 34 1 7 8
M  V30 35 1 11 13
M  V30 36 1 26 30
M  V30 37 1 29 31
M  V30 END BOND
M  V30 END CTAB
M  END
>  <Molecule Name>


>  <status>
-

>  <cas>
16110-51-3

>  <name>
CROMOLYN

>  <ID>
401

>  <Smiles>
[O-]C(C(Oc1cccc(OCC(COc2cccc(OC(C([O-])=O)=C3)c2C3=O)O)c11)=CC1=O)=O

$$$$

Actelion Java MolfileCreator 2.0

  0  0  0  0  0  0              0 V3000
M  V30 BEGIN CTAB
M  V30 COUNTS 14 15 0 0 0
M  V30 BEGIN ATOM
M  V30 1 Cl 1.299 0.0 0.0 0
M  V30 2 C 0.0 -0.75 0.0 0
M  V30 3 C -1.299 0.0 0.0 0
M  V30 4 C 0.0 -2.25 0.0 0
M  V30 5 C -2.598 -0.75 0.0 0
M  V30 6 C -1.299 -3.0 0.0 0
M  V30 7 S -3.8971 0.0 0.0 0
M  V30 8 C -2.598 -2.25 0.0 0
M  V30 9 O -3.1471 1.299 0.0 0
M  V30 10 O -4.6471 1.299 0.0 0
M  V30 11 N -5.1961 -0.75 0.0 0
M  V30 12 N -3.8971 -3.0 0.0 0
M  V30 13 C -5.1961 -2.25 0.0 0
M  V30 14 C -6.4952 -3.0 0.0 0
M  V30 END ATOM
M  V30 BEGIN BOND
M  V30 1 1 1 2
M  V30 2 2 2 3
M  V30 3 1 2 4
M  V30 4 1 3 5
M  V30 5 2 4 6
M  V30 6 1 5 7
M  V30 7 2 5 8
M  V30 8 2 7 9
M  V30 9 2 7 10
M  V30 10 1 7 11
M  V30 11 1 8 12
M  V30 12 2 11 13
M  V30 13 1 13 14
M  V30 14 1 6 8
M  V30 15 1 12 13
M  V30 END BOND
M  V30 END CTAB
M  END
>  <Molecule Name>


>  <status>
-

>  <cas>
364-98-7

>  <name>
DIAZOXIDE

>  <ID>
402

>  <Smiles>
CC(Nc(cc1)c2cc1Cl)=NS2(=O)=O

$$$$

Actelion Java MolfileCreator 2.0

  0  0  0  0  0  0              0 V3000
M  V30 BEGIN CTAB
M  V30 COUNTS 9 9 0 0 0
M  V30 BEGIN ATOM
M  V30 1 F 1.299 0.0 0.0 0
M  V30 2 C 0.0 -0.75 0.0 0
M  V30 3 C -1.299 0.0 0.0 0
M  V30 4 C 0.0 -2.25 0.0 0
M  V30 5 N -2.598 -0.7499 0.0 0
M  V30 6 N -1.299 1.5 0.0 0
M  V30 7 N -1.299 -2.9999 0.0 0
M  V30 8 C -2.598 -2.2499 0.0 0
M  V30 9 O -3.8971 -2.9999 0.0 0
M  V30 END ATOM
M  V30 BEGIN BOND
M  V30 1 1 1 2
M  V30 2 2 2 3
M  V30 3 1 2 4
M  V30 4 1 3 5
M  V30 5 1 3 6
M  V30 6 2 4 7
M  V30 7 1 5 8
M  V30 8 2 8 9
M  V30 9 1 7 8
M  V30 END BOND
M  V30 END CTAB
M  END
>  <Molecule Name>


>  <status>
-

>  <cas>
2022-85-7

>  <name>
FLUCYTOSINE

>  <ID>
403

>  <Smiles>
NC(NC(N=C1)=O)=C1F

$$$$

Actelion Java MolfileCreator 2.0

  0  0  0  0  0  0              0 V3000
M  V30 BEGIN CTAB
M  V30 COUNTS 30 34 0 0 0
M  V30 BEGIN ATOM
M  V30 1 O -2.515 8.3091 0.0 0
M  V30 2 C -1.6307 7.092 0.0 0
M  V30 3 C -0.1346 7.2493 0.0 0
M  V30 4 C -2.2426 5.7177 0.0 0
M  V30 5 C 0.7496 6.0322 0.0 0
M  V30 6 C -1.3583 4.5006 0.0 0
M  V30 7 C 0.1377 4.6578 0.0 0 CFG=2
M  V30 8 C 2.2458 6.1894 0.0 0
M  V30 9 C 1.022 3.4408 0.0 0 CFG=1
M  V30 10 C -0.4741 3.2835 0.0 0
M  V30 11 C 3.13 4.9724 0.0 0
M  V30 12 C 0.4101 2.0664 0.0 0 CFG=1
M  V30 13 C 2.5181 3.598 0.0 0 CFG=1
M  V30 14 O -1.086 1.9092 0.0 0
M  V30 15 C 1.2943 0.8493 0.0 0
M  V30 16 C 3.4024 2.3809 0.0 0 CFG=1
M  V30 17 C 2.7905 1.0066 0.0 0 CFG=1
M  V30 18 C 4.8986 2.2237 0.0 0
M  V30 19 C 3.9085 0.0 0.0 0 CFG=1
M  V30 20 C 2.3069 -0.255 0.0 0
M  V30 21 C 5.2113 0.7521 0.0 0 CFG=2
M  V30 22 O 4.2213 -1.4715 0.0 0
M  V30 23 C 2.65 -0.8259 0.0 0
M  V30 24 O 6.3293 -0.2544 0.0 0
M  V30 25 C 5.7174 -1.6287 0.0 0
M  V30 26 O 2.6056 -2.2565 0.0 0
M  V30 27 C 1.3028 0.0 0.0 0
M  V30 28 C 5.7174 -3.1331 0.0 0
M  V30 29 C 7.0203 -2.3809 0.0 0
M  V30 30 O 0.0 -0.7521 0.0 0
M  V30 END ATOM
M  V30 BEGIN BOND
M  V30 1 2 1 2
M  V30 2 1 2 3
M  V30 3 1 2 4
M  V30 4 2 3 5
M  V30 5 2 4 6
M  V30 6 1 7 5
M  V30 7 1 5 8
M  V30 8 1 9 7
M  V30 9 1 7 10 CFG=3
M  V30 10 1 8 11
M  V30 11 1 9 12 CFG=3
M  V30 12 1 13 9
M  V30 13 1 12 14 CFG=3
M  V30 14 1 12 15
M  V30 15 1 16 13
M  V30 16 1 17 15
M  V30 17 1 16 18 CFG=3
M  V30 18 1 19 17
M  V30 19 1 17 20 CFG=3
M  V30 20 1 21 18
M  V30 21 1 19 22
M  V30 22 1 19 23 CFG=3
M  V30 23 1 21 24 CFG=1
M  V30 24 1 22 25
M  V30 25 2 23 26
M  V30 26 1 23 27
M  V30 27 1 25 28
M  V30 28 1 25 29
M  V30 29 1 27 30
M  V30 30 1 6 7
M  V30 31 1 13 11 CFG=1
M  V30 32 1 16 17
M  V30 33 1 19 21
M  V30 34 1 24 25
M  V30 END BOND
M  V30 BEGIN COLLECTION
M  V30 MDLV30/STERAC1 ATOMS=(8 7 9 12 13 16 17 19 21)
M  V30 END COLLECTION
M  V30 END CTAB
M  END
>  <Molecule Name>


>  <status>
-

>  <cas>
638-94-8

>  <name>
DESONIDE

>  <ID>
404

>  <Smiles>
CC(C)(O[C@@H]1C[C@@H]([C@H](CC2)[C@H]3[C@@](C)(C=C4)C2=CC4=O)[C@]2(C)C[C@@H]3O)O[C@@]12C(CO)=O

$$$$

Actelion Java MolfileCreator 2.0

  0  0  0  0  0  0              0 V3000
M  V30 BEGIN CTAB
M  V30 COUNTS 41 46 0 0 0
M  V30 BEGIN ATOM
M  V30 1 O 5.8438 7.8598 0.0 0
M  V30 2 C 5.5348 6.9087 0.0 0
M  V30 3 O 4.5567 6.7008 0.0 0
M  V30 4 C 6.2039 6.1656 0.0 0
M  V30 5 C 4.2476 5.7498 0.0 0 CFG=2
M  V30 6 C 3.2695 5.5418 0.0 0 CFG=1
M  V30 7 C 4.9168 5.0066 0.0 0
M  V30 8 N 2.6004 6.285 0.0 0 CHG=1
M  V30 9 C 2.9605 4.5908 0.0 0
M  V30 10 C 4.6078 4.0556 0.0 0 CFG=1
M  V30 11 C 2.9094 7.236 0.0 0
M  V30 12 C 1.6222 6.0771 0.0 0
M  V30 13 C 2.2913 5.3339 0.0 0
M  V30 14 C 3.6296 3.8476 0.0 0 CFG=1
M  V30 15 C 5.2769 3.3124 0.0 0
M  V30 16 C 2.2402 7.9792 0.0 0
M  V30 17 C 0.9531 6.8202 0.0 0
M  V30 18 C 3.3206 2.8966 0.0 0 CFG=2
M  V30 19 C 2.6515 3.6397 0.0 0
M  V30 20 C 4.9679 2.3614 0.0 0
M  V30 21 C 1.2621 7.7713 0.0 0
M  V30 22 C 3.9897 2.1534 0.0 0 CFG=1
M  V30 23 C 2.3424 2.6887 0.0 0
M  V30 24 C 3.6807 1.2024 0.0 0 CFG=1
M  V30 25 C 2.0334 1.7376 0.0 0
M  V30 26 C 2.7026 0.9945 0.0 0 CFG=2
M  V30 27 C 4.1807 0.3364 0.0 0
M  V30 28 C 2.598 0.0 0.0 0 CFG=2
M  V30 29 C 1.7515 0.6855 0.0 0
M  V30 30 C 3.5116 -0.4067 0.0 0 CFG=1
M  V30 31 O 1.732 -0.5 0.0 0
M  V30 32 N 3.7195 -1.3848 0.0 0 CHG=1
M  V30 33 C 0.866 0.0 0.0 0
M  V30 34 C 2.9763 -2.054 0.0 0
M  V30 35 C 4.6705 -1.6939 0.0 0
M  V30 36 C 4.4626 -0.7157 0.0 0
M  V30 37 O 0.866 1.0 0.0 0
M  V30 38 C 0.0 -0.5 0.0 0
M  V30 39 C 3.1843 -3.0321 0.0 0
M  V30 40 C 4.8785 -2.672 0.0 0
M  V30 41 C 4.1353 -3.3411 0.0 0
M  V30 END ATOM
M  V30 BEGIN BOND
M  V30 1 2 1 2
M  V30 2 1 2 3
M  V30 3 1 2 4
M  V30 4 1 5 3 CFG=1
M  V30 5 1 6 5
M  V30 6 1 5 7
M  V30 7 1 6 8 CFG=3
M  V30 8 1 6 9
M  V30 9 1 10 7 CFG=3
M  V30 10 1 8 11
M  V30 11 1 8 12
M  V30 12 1 8 13
M  V30 13 1 14 9
M  V30 14 1 10 15
M  V30 15 1 11 16
M  V30 16 1 12 17
M  V30 17 1 18 14
M  V30 18 1 14 19 CFG=3
M  V30 19 1 15 20
M  V30 20 1 16 21
M  V30 21 1 22 18
M  V30 22 1 18 23 CFG=3
M  V30 23 1 24 22
M  V30 24 1 23 25
M  V30 25 1 26 24
M  V30 26 1 24 27 CFG=3
M  V30 27 1 28 26
M  V30 28 1 26 29 CFG=3
M  V30 29 1 30 27
M  V30 30 1 28 31 CFG=3
M  V30 31 1 30 32 CFG=3
M  V30 32 1 31 33
M  V30 33 1 32 34
M  V30 34 1 32 35
M  V30 35 1 32 36
M  V30 36 2 33 37
M  V30 37 1 33 38
M  V30 38 1 34 39
M  V30 39 1 35 40
M  V30 40 1 39 41
M  V30 41 1 10 14
M  V30 42 1 17 21
M  V30 43 1 22 20 CFG=1
M  V30 44 1 25 26
M  V30 45 1 28 30
M  V30 46 1 40 41
M  V30 END BOND
M  V30 BEGIN COLLECTION
M  V30 MDLV30/STERAC1 ATOMS=(10 5 6 10 14 18 22 24 26 28 30)
M  V30 END COLLECTION
M  V30 END CTAB
M  END
>  <Molecule Name>


>  <status>
-

>  <cas>
15500-66-0

>  <name>
PANCURONIUM

>  <ID>
405

>  <Smiles>
C[C@](CC1)([C@@H](C[C@@H]2[N+]3(C)CCCCC3)[C@H](CC3)[C@H]1[C@@](C)(C[C@@H]1[N+]4(C)CCCCC4)[C@@H]3C[C@@H]1OC(C)=O)[C@H]2OC(C)=O

$$$$
_c001
Actelion Java MolfileCreator 2.0

  0  0  0  0  0  0              0 V3000
M  V30 BEGIN CTAB
M  V30 COUNTS 54 56 0 0 0
M  V30 BEGIN ATOM
M  V30 1 S 10.3923 2.5 0.0 0
M  V30 2 C 10.3923 1.4999 0.0 0
M  V30 3 C 11.2583 3.0 0.0 0
M  V30 4 C 9.5262 1.0 0.0 0
M  V30 5 C 9.5262 0.0 0.0 0 CFG=2
M  V30 6 N 8.6602 -0.5 0.0 0
M  V30 7 C 10.3923 -0.5 0.0 0
M  V30 8 C 7.7942 0.0 0.0 0
M  V30 9 O 10.3923 -1.5 0.0 0
M  V30 10 N 11.2583 0.0 0.0 0
M  V30 11 O 7.7942 0.9999 0.0 0
M  V30 12 C 6.9282 -0.5 0.0 0 CFG=1
M  V30 13 C 12.1243 -0.5 0.0 0 CFG=2
M  V30 14 N 6.0621 0.0 0.0 0
M  V30 15 C 6.9282 -1.5 0.0 0
M  V30 16 C 12.9903 0.0 0.0 0
M  V30 17 C 12.1243 -1.5 0.0 0
M  V30 18 C 5.1961 -0.5 0.0 0
M  V30 19 C 7.7942 -2.0 0.0 0
M  V30 20 O 12.9903 1.0 0.0 0
M  V30 21 N 13.8564 -0.5 0.0 0
M  V30 22 C 12.9903 -2.0 0.0 0
M  V30 23 O 5.1961 -1.4999 0.0 0
M  V30 24 C 4.3301 0.0 0.0 0
M  V30 25 C 7.8987 -2.9945 0.0 0
M  V30 26 C 8.7077 -1.5932 0.0 0
M  V30 27 C 14.7224 0.0 0.0 0 CFG=2
M  V30 28 O 13.8564 -1.5 0.0 0
M  V30 29 O 12.9903 -3.0 0.0 0 CHG=-1
M  V30 30 C 3.4641 -0.5 0.0 0
M  V30 31 C 8.8769 -3.2024 0.0 0
M  V30 32 C 7.2296 -3.7376 0.0 0
M  V30 33 N 9.3769 -2.3364 0.0 0
M  V30 34 C 14.7224 0.9999 0.0 0
M  V30 35 C 15.5884 -0.4999 0.0 0
M  V30 36 N 2.598 0.0 0.0 0
M  V30 37 C 9.1859 -4.1534 0.0 0
M  V30 38 C 7.5386 -4.6887 0.0 0
M  V30 39 O 15.5884 1.4999 0.0 0
M  V30 40 N 13.8564 1.4999 0.0 0
M  V30 41 C 15.5884 -1.5 0.0 0
M  V30 42 C 1.732 -0.5 0.0 0
M  V30 43 C 8.5167 -4.8966 0.0 0
M  V30 44 C 16.4544 -1.9999 0.0 0
M  V30 45 C 14.7224 -2.0 0.0 0
M  V30 46 O 1.732 -1.5 0.0 0
M  V30 47 O 0.866 0.0 0.0 0
M  V30 48 C 16.4544 -3.0 0.0 0
M  V30 49 C 14.7224 -3.0 0.0 0
M  V30 50 C 0.0 -0.5 0.0 0
M  V30 51 C 15.5884 -3.5 0.0 0
M  V30 52 C 0.4999 -1.366 0.0 0
M  V30 53 C -0.866 -0.9999 0.0 0
M  V30 54 C -0.4999 0.366 0.0 0
M  V30 END ATOM
M  V30 BEGIN BOND
M  V30 1 1 1 2
M  V30 2 1 1 3
M  V30 3 1 2 4
M  V30 4 1 5 4
M  V30 5 1 5 6 CFG=1
M  V30 6 1 5 7
M  V30 7 1 6 8
M  V30 8 2 7 9
M  V30 9 1 7 10
M  V30 10 2 8 11
M  V30 11 1 12 8
M  V30 12 1 13 10 CFG=3
M  V30 13 1 12 14 CFG=3
M  V30 14 1 12 15
M  V30 15 1 13 16
M  V30 16 1 13 17
M  V30 17 1 14 18
M  V30 18 1 15 19
M  V30 19 2 16 20
M  V30 20 1 16 21
M  V30 21 1 17 22
M  V30 22 2 18 23
M  V30 23 1 18 24
M  V30 24 1 19 25
M  V30 25 2 19 26
M  V30 26 1 27 21 CFG=3
M  V30 27 2 22 28
M  V30 28 1 22 29
M  V30 29 1 24 30
M  V30 30 2 25 31
M  V30 31 1 25 32
M  V30 32 1 26 33
M  V30 33 1 27 34
M  V30 34 1 27 35
M  V30 35 1 30 36
M  V30 36 1 31 37
M  V30 37 2 32 38
M  V30 38 2 34 39
M  V30 39 1 34 40
M  V30 40 1 35 41
M  V30 41 1 36 42
M  V30 42 2 37 43
M  V30 43 2 41 44
M  V30 44 1 41 45
M  V30 45 2 42 46
M  V30 46 1 42 47
M  V30 47 1 44 48
M  V30 48 2 45 49
M  V30 49 1 47 50
M  V30 50 2 48 51
M  V30 51 1 50 52
M  V30 52 1 50 53
M  V30 53 1 50 54
M  V30 54 1 31 33
M  V30 55 1 38 43
M  V30 56 1 49 51
M  V30 END BOND
M  V30 BEGIN COLLECTION
M  V30 MDLV30/STERAC1 ATOMS=(4 5 12 13 27)
M  V30 END COLLECTION
M  V30 END CTAB
M  END
>  <Molecule Name>
_c001

>  <status>
DISCONTINUED

>  <cas>
5534-95-2

>  <name>
PENTAGASTRIN

>  <ID>
406

>  <Smiles>
CC(C)(C)OC(NCCC(N[C@@H](Cc1c[nH]c2c1cccc2)C(N[C@@H](CCSC)C(N[C@@H](CC([O-])=O)C(N[C@@H](Cc1ccccc1)C(N)=O)=O)=O)=O)=O)=O

$$$$

Actelion Java MolfileCreator 2.0

  0  0  0  0  0  0              0 V3000
M  V30 BEGIN CTAB
M  V30 COUNTS 10 9 0 0 0
M  V30 BEGIN ATOM
M  V30 1 Cl 6.4952 0.0 0.0 0
M  V30 2 C 5.1961 -0.75 0.0 0 CFG=2
M  V30 3 F 5.1961 -2.25 0.0 0
M  V30 4 C 3.8971 0.0 0.0 0
M  V30 5 F 4.6471 1.299 0.0 0
M  V30 6 F 3.1471 1.299 0.0 0
M  V30 7 O 2.598 -0.75 0.0 0
M  V30 8 C 1.299 0.0 0.0 0
M  V30 9 F 1.299 1.5 0.0 0
M  V30 10 F 0.0 -0.75 0.0 0
M  V30 END ATOM
M  V30 BEGIN BOND
M  V30 1 1 2 1 CFG=3
M  V30 2 1 2 3
M  V30 3 1 2 4
M  V30 4 1 4 5
M  V30 5 1 4 6
M  V30 6 1 4 7
M  V30 7 1 7 8
M  V30 8 1 8 9
M  V30 9 1 8 10
M  V30 END BOND
M  V30 BEGIN COLLECTION
M  V30 MDLV30/STERAC1 ATOMS=(1 2)
M  V30 END COLLECTION
M  V30 END CTAB
M  END
>  <Molecule Name>


>  <status>
DISCONTINUED

>  <cas>
13838-16-9

>  <name>
ENFLURANE

>  <ID>
407

>  <Smiles>
FC(C(OC(F)F)(F)F)Cl

$$$$

Actelion Java MolfileCreator 2.0

  0  0  0  0  0  0              0 V3000
M  V30 BEGIN CTAB
M  V30 COUNTS 20 22 0 0 0
M  V30 BEGIN ATOM
M  V30 1 O 0.1893 -2.0297 0.0 0
M  V30 2 C 1.1674 -2.2376 0.0 0
M  V30 3 C 1.8365 -1.4945 0.0 0
M  V30 4 C 1.4764 -3.1887 0.0 0 CFG=2
M  V30 5 C 2.8147 -1.7024 0.0 0
M  V30 6 C 1.732 -0.5 0.0 0
M  V30 7 C 2.4546 -3.3966 0.0 0
M  V30 8 C 0.8073 -3.9318 0.0 0
M  V30 9 N 3.3147 -0.8364 0.0 0
M  V30 10 C 3.1237 -2.6534 0.0 0
M  V30 11 C 2.6455 -0.0932 0.0 0
M  V30 12 C 0.866 0.0 0.0 0
M  V30 13 N 1.1163 -4.8829 0.0 0
M  V30 14 C 2.8535 0.8848 0.0 0
M  V30 15 C 0.0 -0.5 0.0 0
M  V30 16 C 0.4472 -5.626 0.0 0
M  V30 17 C 2.0944 -5.0908 0.0 0
M  V30 18 C 0.7562 -6.5771 0.0 0
M  V30 19 C 2.4035 -6.0418 0.0 0
M  V30 20 O 1.7343 -6.785 0.0 0
M  V30 END ATOM
M  V30 BEGIN BOND
M  V30 1 2 1 2
M  V30 2 1 2 3
M  V30 3 1 4 2
M  V30 4 2 3 5
M  V30 5 1 3 6
M  V30 6 1 4 7
M  V30 7 1 4 8 CFG=3
M  V30 8 1 5 9
M  V30 9 1 5 10
M  V30 10 2 6 11
M  V30 11 1 6 12
M  V30 12 1 8 13
M  V30 13 1 11 14
M  V30 14 1 12 15
M  V30 15 1 13 16
M  V30 16 1 13 17
M  V30 17 1 16 18
M  V30 18 1 17 19
M  V30 19 1 18 20
M  V30 20 1 7 10
M  V30 21 1 9 11
M  V30 22 1 19 20
M  V30 END BOND
M  V30 BEGIN COLLECTION
M  V30 MDLV30/STERAC1 ATOMS=(1 4)
M  V30 END COLLECTION
M  V30 END CTAB
M  END
>  <Molecule Name>


>  <status>
-

>  <cas>
7416-34-4

>  <name>
MOLINDONE

>  <ID>
408

>  <Smiles>
CCc1c(C)[nH]c(CCC2CN3CCOCC3)c1C2=O

$$$$

Actelion Java MolfileCreator 2.0

  0  0  0  0  0  0              0 V3000
M  V30 BEGIN CTAB
M  V30 COUNTS 20 23 0 0 0
M  V30 BEGIN ATOM
M  V30 1 Cl 3.4641 1.4999 0.0 0
M  V30 2 C 2.598 0.9999 0.0 0
M  V30 3 C 1.732 1.4999 0.0 0
M  V30 4 C 2.598 0.0 0.0 0
M  V30 5 C 0.866 0.9999 0.0 0
M  V30 6 C 1.732 -0.5 0.0 0
M  V30 7 C 0.866 0.0 0.0 0
M  V30 8 C 0.0 -0.5 0.0 0 CFG=2
M  V30 9 O 0.8386 -1.0446 0.0 0
M  V30 10 N -0.9135 -0.0932 0.0 0
M  V30 11 C -0.1045 -1.4945 0.0 0
M  V30 12 C -1.5826 -0.8364 0.0 0
M  V30 13 C -1.4135 0.7727 0.0 0
M  V30 14 C -1.0826 -1.7024 0.0 0
M  V30 15 C 0.5646 -2.2376 0.0 0
M  V30 16 N -2.4962 -0.4296 0.0 0
M  V30 17 C -2.3916 0.5648 0.0 0
M  V30 18 C -1.3916 -2.6534 0.0 0
M  V30 19 C 0.2555 -3.1887 0.0 0
M  V30 20 C -0.7225 -3.3966 0.0 0
M  V30 END ATOM
M  V30 BEGIN BOND
M  V30 1 1 1 2
M  V30 2 2 2 3
M  V30 3 1 2 4
M  V30 4 1 3 5
M  V30 5 2 4 6
M  V30 6 2 5 7
M  V30 7 1 8 7
M  V30 8 1 8 9 CFG=3
M  V30 9 1 8 10
M  V30 10 1 8 11
M  V30 11 1 10 12
M  V30 12 1 10 13
M  V30 13 2 11 14
M  V30 14 1 11 15
M  V30 15 2 12 16
M  V30 16 1 13 17
M  V30 17 1 14 18
M  V30 18 2 15 19
M  V30 19 2 18 20
M  V30 20 1 6 7
M  V30 21 1 12 14
M  V30 22 1 16 17
M  V30 23 1 19 20
M  V30 END BOND
M  V30 BEGIN COLLECTION
M  V30 MDLV30/STERAC1 ATOMS=(1 8)
M  V30 END COLLECTION
M  V30 END CTAB
M  END
>  <Molecule Name>


>  <status>
DISCONTINUED

>  <cas>
22232-71-9

>  <name>
MAZINDOL

>  <ID>
409

>  <Smiles>
OC(c1c2cccc1)(c(cc1)ccc1Cl)N1C2=NCC1

$$$$

Actelion Java MolfileCreator 2.0

  0  0  0  0  0  0              0 V3000
M  V30 BEGIN CTAB
M  V30 COUNTS 21 22 0 0 0
M  V30 BEGIN ATOM
M  V30 1 O 0.866 0.0 0.0 0
M  V30 2 C 1.732 -0.5 0.0 0
M  V30 3 C 0.0 -0.5 0.0 0
M  V30 4 C 1.732 -1.5 0.0 0
M  V30 5 C 2.598 0.0 0.0 0
M  V30 6 O 0.866 -1.9999 0.0 0
M  V30 7 C 2.598 -2.0 0.0 0
M  V30 8 O 2.598 0.9999 0.0 0
M  V30 9 C 3.4641 -0.5 0.0 0
M  V30 10 C 0.866 -2.9999 0.0 0
M  V30 11 C 3.4641 -1.5 0.0 0
M  V30 12 C 1.732 1.5 0.0 0
M  V30 13 C 4.3301 -2.0 0.0 0
M  V30 14 C 5.1961 -1.5 0.0 0
M  V30 15 C 6.0621 -2.0 0.0 0
M  V30 16 C 5.1961 -0.5 0.0 0
M  V30 17 N 6.9282 -1.5 0.0 0
M  V30 18 N 6.0621 -3.0 0.0 0
M  V30 19 N 6.0621 0.0 0.0 0
M  V30 20 C 6.9282 -0.5 0.0 0
M  V30 21 N 7.7942 0.0 0.0 0
M  V30 END ATOM
M  V30 BEGIN BOND
M  V30 1 1 1 2
M  V30 2 1 1 3
M  V30 3 2 2 4
M  V30 4 1 2 5
M  V30 5 1 4 6
M  V30 6 1 4 7
M  V30 7 1 5 8
M  V30 8 2 5 9
M  V30 9 1 6 10
M  V30 10 2 7 11
M  V30 11 1 8 12
M  V30 12 1 11 13
M  V30 13 1 13 14
M  V30 14 2 14 15
M  V30 15 1 14 16
M  V30 16 1 15 17
M  V30 17 1 15 18
M  V30 18 2 16 19
M  V30 19 2 17 20
M  V30 20 1 20 21
M  V30 21 1 9 11
M  V30 22 1 19 20
M  V30 END BOND
M  V30 END CTAB
M  END
>  <Molecule Name>


>  <status>
-

>  <cas>
738-70-5

>  <name>
TRIMETHOPRIM

>  <ID>
410

>  <Smiles>
COc1cc(Cc2c(N)nc(N)nc2)cc(OC)c1OC

$$$$

Actelion Java MolfileCreator 2.0

  0  0  0  0  0  0              0 V3000
M  V30 BEGIN CTAB
M  V30 COUNTS 24 26 0 0 0
M  V30 BEGIN ATOM
M  V30 1 Cl 1.299 0.0 0.0 0
M  V30 2 C 0.0 -0.75 0.0 0
M  V30 3 C -1.299 0.0 0.0 0
M  V30 4 C 0.0 -2.2499 0.0 0
M  V30 5 S -1.299 1.5 0.0 0
M  V30 6 C -2.598 -0.7499 0.0 0
M  V30 7 C -1.299 -2.9999 0.0 0
M  V30 8 O 0.2009 1.5 0.0 0
M  V30 9 O -2.799 1.5 0.0 0
M  V30 10 N -1.299 3.0 0.0 0
M  V30 11 C -2.598 -2.2499 0.0 0
M  V30 12 N -1.299 -4.4999 0.0 0
M  V30 13 C -3.8971 -2.9999 0.0 0
M  V30 14 C -2.598 -5.2499 0.0 0 CFG=1
M  V30 15 O -5.1961 -2.2499 0.0 0
M  V30 16 N -3.8971 -4.4999 0.0 0
M  V30 17 C -2.598 -6.7499 0.0 0
M  V30 18 C -5.1961 -5.2499 0.0 0
M  V30 19 C -6.4951 -4.4999 0.0 0
M  V30 20 C -5.1961 -6.7499 0.0 0
M  V30 21 C -7.7942 -5.2499 0.0 0
M  V30 22 C -6.4951 -2.9999 0.0 0
M  V30 23 C -6.4951 -7.4999 0.0 0
M  V30 24 C -7.7942 -6.7499 0.0 0
M  V30 END ATOM
M  V30 BEGIN BOND
M  V30 1 1 1 2
M  V30 2 2 2 3
M  V30 3 1 2 4
M  V30 4 1 3 5
M  V30 5 1 3 6
M  V30 6 2 4 7
M  V30 7 2 5 8
M  V30 8 2 5 9
M  V30 9 1 5 10
M  V30 10 2 6 11
M  V30 11 1 7 12
M  V30 12 1 11 13
M  V30 13 1 14 12
M  V30 14 2 13 15
M  V30 15 1 13 16
M  V30 16 1 14 17 CFG=3
M  V30 17 1 16 18
M  V30 18 2 18 19
M  V30 19 1 18 20
M  V30 20 1 19 21
M  V30 21 1 19 22
M  V30 22 2 20 23
M  V30 23 2 21 24
M  V30 24 1 7 11
M  V30 25 1 14 16
M  V30 26 1 23 24
M  V30 END BOND
M  V30 BEGIN COLLECTION
M  V30 MDLV30/STERAC1 ATOMS=(1 14)
M  V30 END COLLECTION
M  V30 END CTAB
M  END
>  <Molecule Name>


>  <status>
-

>  <cas>
17560-51-9

>  <name>
METOLAZONE

>  <ID>
411

>  <Smiles>
CC(Nc(c1c2)cc(Cl)c2S(N)(=O)=O)N(c2c(C)cccc2)C1=O

$$$$

Actelion Java MolfileCreator 2.0

  0  0  0  0  0  0              0 V3000
M  V30 BEGIN CTAB
M  V30 COUNTS 23 26 0 0 0
M  V30 BEGIN ATOM
M  V30 1 O 12.7717 1.7313 0.0 0
M  V30 2 C 11.3045 1.4194 0.0 0
M  V30 3 C 10.8409 -0.0071 0.0 0
M  V30 4 C 10.3008 2.5341 0.0 0
M  V30 5 C 9.3737 -0.319 0.0 0
M  V30 6 C 8.8335 2.2222 0.0 0
M  V30 7 C 8.9102 -1.7455 0.0 0
M  V30 8 C 8.37 0.7957 0.0 0 CFG=1
M  V30 9 C 7.443 -2.0574 0.0 0
M  V30 10 C 6.9028 0.4838 0.0 0 CFG=1
M  V30 11 C 7.3663 1.9104 0.0 0
M  V30 12 C 6.4393 -0.9427 0.0 0 CFG=2
M  V30 13 C 5.8991 1.5985 0.0 0
M  V30 14 C 4.972 -1.2546 0.0 0 CFG=1
M  V30 15 C 4.4319 1.2866 0.0 0
M  V30 16 C 3.9683 -0.1398 0.0 0 CFG=2
M  V30 17 C 4.222 -2.5536 0.0 0
M  V30 18 C 2.598 -0.75 0.0 0 CFG=2
M  V30 19 C 2.8536 0.8638 0.0 0
M  V30 20 C 2.7548 -2.2417 0.0 0
M  V30 21 C 1.299 0.0 0.0 0
M  V30 22 O 1.299 1.5 0.0 0
M  V30 23 C 0.0 -0.75 0.0 0
M  V30 END ATOM
M  V30 BEGIN BOND
M  V30 1 2 1 2
M  V30 2 1 2 3
M  V30 3 1 2 4
M  V30 4 2 3 5
M  V30 5 1 4 6
M  V30 6 1 5 7
M  V30 7 1 8 5
M  V30 8 2 7 9
M  V30 9 1 10 8
M  V30 10 1 8 11 CFG=1
M  V30 11 1 12 9 CFG=1
M  V30 12 1 10 13 CFG=1
M  V30 13 1 14 12
M  V30 14 1 13 15
M  V30 15 1 16 14
M  V30 16 1 14 17 CFG=3
M  V30 17 1 18 16
M  V30 18 1 16 19 CFG=3
M  V30 19 1 17 20
M  V30 20 1 18 21 CFG=3
M  V30 21 2 21 22
M  V30 22 1 21 23
M  V30 23 1 6 8
M  V30 24 1 10 12
M  V30 25 1 15 16
M  V30 26 1 18 20
M  V30 END BOND
M  V30 BEGIN COLLECTION
M  V30 MDLV30/STERAC1 ATOMS=(6 8 10 12 14 16 18)
M  V30 END COLLECTION
M  V30 END CTAB
M  END
>  <Molecule Name>


>  <status>
DISCONTINUED

>  <cas>
152-62-5

>  <name>
DYDROGESTERONE

>  <ID>
412

>  <Smiles>
C[C@](CC[C@H]1[C@]2(C)CC3)([C@@H](CC4)[C@@H]1C=CC2=CC3=O)[C@H]4C(C)=O

$$$$

Actelion Java MolfileCreator 2.0

  0  0  0  0  0  0              0 V3000
M  V30 BEGIN CTAB
M  V30 COUNTS 11 11 0 0 0
M  V30 BEGIN ATOM
M  V30 1 O 5.1961 -0.5 0.0 0
M  V30 2 C 4.3301 0.0 0.0 0
M  V30 3 C 4.3301 1.0 0.0 0
M  V30 4 C 3.4641 -0.4999 0.0 0
M  V30 5 O 5.1961 1.5 0.0 0
M  V30 6 C 3.4641 1.5 0.0 0
M  V30 7 C 2.598 0.0 0.0 0
M  V30 8 C 2.598 1.0 0.0 0
M  V30 9 C 1.732 -0.5 0.0 0
M  V30 10 C 0.866 0.0 0.0 0
M  V30 11 N 0.0 -0.5 0.0 0
M  V30 END ATOM
M  V30 BEGIN BOND
M  V30 1 1 1 2
M  V30 2 2 2 3
M  V30 3 1 2 4
M  V30 4 1 3 5
M  V30 5 1 3 6
M  V30 6 2 4 7
M  V30 7 2 6 8
M  V30 8 1 7 9
M  V30 9 1 9 10
M  V30 10 1 10 11
M  V30 11 1 7 8
M  V30 END BOND
M  V30 END CTAB
M  END
>  <Molecule Name>


>  <status>
-

>  <cas>
51-61-6

>  <name>
DOPAMINE

>  <ID>
413

>  <Smiles>
NCCc(cc1)cc(O)c1O

$$$$

Actelion Java MolfileCreator 2.0

  0  0  0  0  0  0              0 V3000
M  V30 BEGIN CTAB
M  V30 COUNTS 14 15 0 0 0
M  V30 BEGIN ATOM
M  V30 1 Cl 2.598 1.0 0.0 0
M  V30 2 C 2.598 0.0 0.0 0
M  V30 3 C 1.732 -0.5 0.0 0
M  V30 4 C 3.4641 -0.4999 0.0 0
M  V30 5 N 0.866 0.0 0.0 0
M  V30 6 C 1.732 -1.5 0.0 0
M  V30 7 C 3.4641 -1.4999 0.0 0
M  V30 8 C 0.0 -0.5 0.0 0
M  V30 9 Cl 0.866 -2.0 0.0 0
M  V30 10 C 2.598 -1.9999 0.0 0
M  V30 11 N -0.9135 -0.0932 0.0 0
M  V30 12 N -0.1045 -1.4945 0.0 0
M  V30 13 C -1.5826 -0.8364 0.0 0
M  V30 14 C -1.0826 -1.7024 0.0 0
M  V30 END ATOM
M  V30 BEGIN BOND
M  V30 1 1 1 2
M  V30 2 2 2 3
M  V30 3 1 2 4
M  V30 4 1 3 5
M  V30 5 1 3 6
M  V30 6 2 4 7
M  V30 7 2 5 8
M  V30 8 1 6 9
M  V30 9 2 6 10
M  V30 10 1 8 11
M  V30 11 1 8 12
M  V30 12 1 11 13
M  V30 13 1 12 14
M  V30 14 1 7 10
M  V30 15 1 13 14
M  V30 END BOND
M  V30 END CTAB
M  END
>  <Molecule Name>


>  <status>
-

>  <cas>
4205-90-7

>  <name>
CLONIDINE

>  <ID>
414

>  <Smiles>
Clc1cccc(Cl)c1N=C1NCCN1

$$$$

Actelion Java MolfileCreator 2.0

  0  0  0  0  0  0              0 V3000
M  V30 BEGIN CTAB
M  V30 COUNTS 23 26 0 0 0
M  V30 BEGIN ATOM
M  V30 1 Cl 0.9897 -4.4219 0.0 0
M  V30 2 C 1.2122 -3.447 0.0 0
M  V30 3 C 2.1678 -3.1523 0.0 0
M  V30 4 C 0.4792 -2.7668 0.0 0
M  V30 5 C 2.3903 -2.1773 0.0 0
M  V30 6 C 0.7017 -1.7919 0.0 0
M  V30 7 C 3.3792 -2.0283 0.0 0
M  V30 8 C 1.6573 -1.4972 0.0 0
M  V30 9 N 3.8792 -1.1623 0.0 0
M  V30 10 C 3.9425 -2.8545 0.0 0
M  V30 11 N 1.732 -0.5 0.0 0
M  V30 12 C 3.5138 -0.2314 0.0 0
M  V30 13 C 3.5086 -3.7555 0.0 0
M  V30 14 C 4.9397 -2.7798 0.0 0
M  V30 15 C 2.5582 0.0633 0.0 0
M  V30 16 C 0.866 0.0 0.0 0
M  V30 17 C 4.0719 -4.5817 0.0 0
M  V30 18 C 5.503 -3.606 0.0 0
M  V30 19 O 2.4092 1.0521 0.0 0
M  V30 20 C 0.0 -0.5 0.0 0
M  V30 21 C 5.0691 -4.507 0.0 0
M  V30 22 C -1.0 -0.4999 0.0 0
M  V30 23 C -0.5 -1.366 0.0 0
M  V30 END ATOM
M  V30 BEGIN BOND
M  V30 1 1 1 2
M  V30 2 2 2 3
M  V30 3 1 2 4
M  V30 4 1 3 5
M  V30 5 2 4 6
M  V30 6 1 5 7
M  V30 7 2 5 8
M  V30 8 2 7 9
M  V30 9 1 7 10
M  V30 10 1 8 11
M  V30 11 1 9 12
M  V30 12 2 10 13
M  V30 13 1 10 14
M  V30 14 1 11 15
M  V30 15 1 11 16
M  V30 16 1 13 17
M  V30 17 2 14 18
M  V30 18 2 15 19
M  V30 19 1 16 20
M  V30 20 2 17 21
M  V30 21 1 20 22
M  V30 22 1 20 23
M  V30 23 1 6 8
M  V30 24 1 12 15
M  V30 25 1 18 21
M  V30 26 1 22 23
M  V30 END BOND
M  V30 END CTAB
M  END
>  <Molecule Name>


>  <status>
DISCONTINUED

>  <cas>
2955-38-6

>  <name>
PRAZEPAM

>  <ID>
415

>  <Smiles>
O=C1N(CC2CC2)c(ccc(Cl)c2)c2C(c2ccccc2)=NC1

$$$$

Actelion Java MolfileCreator 2.0

  0  0  0  0  0  0              0 V3000
M  V30 BEGIN CTAB
M  V30 COUNTS 12 11 0 0 0
M  V30 BEGIN ATOM
M  V30 1 Cl 6.9282 -0.5 0.0 0
M  V30 2 C 6.0621 0.0 0.0 0
M  V30 3 C 5.1961 -0.5 0.0 0
M  V30 4 N 4.3301 0.0 0.0 0
M  V30 5 N 4.3301 1.0 0.0 0
M  V30 6 C 3.4641 -0.5 0.0 0
M  V30 7 O 3.4641 1.5 0.0 0
M  V30 8 O 3.4641 -1.5 0.0 0
M  V30 9 N 2.598 0.0 0.0 0
M  V30 10 C 1.732 -0.5 0.0 0
M  V30 11 C 0.866 0.0 0.0 0
M  V30 12 Cl 0.0 -0.5 0.0 0
M  V30 END ATOM
M  V30 BEGIN BOND
M  V30 1 1 1 2
M  V30 2 1 2 3
M  V30 3 1 3 4
M  V30 4 1 4 5
M  V30 5 1 4 6
M  V30 6 2 5 7
M  V30 7 2 6 8
M  V30 8 1 6 9
M  V30 9 1 9 10
M  V30 10 1 10 11
M  V30 11 1 11 12
M  V30 END BOND
M  V30 END CTAB
M  END
>  <Molecule Name>


>  <status>
-

>  <cas>
154-93-8

>  <name>
CARMUSTINE

>  <ID>
416

>  <Smiles>
O=C(NCCCl)N(CCCl)N=O

$$$$

Actelion Java MolfileCreator 2.0

  0  0  0  0  0  0              0 V3000
M  V30 BEGIN CTAB
M  V30 COUNTS 15 16 0 0 0
M  V30 BEGIN ATOM
M  V30 1 O 1.0934 -2.1636 0.0 0
M  V30 2 C 1.8365 -1.4945 0.0 0
M  V30 3 O 2.8147 -1.7024 0.0 0
M  V30 4 C 1.732 -0.5 0.0 0 CFG=2
M  V30 5 C 3.3147 -0.8364 0.0 0
M  V30 6 C 2.6455 -0.0932 0.0 0 CFG=2
M  V30 7 C 0.866 0.0 0.0 0
M  V30 8 C 2.8535 0.8848 0.0 0
M  V30 9 C 0.0 -0.5 0.0 0
M  V30 10 C 2.1103 1.554 0.0 0
M  V30 11 N 2.2148 2.5485 0.0 0
M  V30 12 C 1.1322 1.3461 0.0 0
M  V30 13 C 1.3013 2.9552 0.0 0
M  V30 14 C 3.0809 3.0485 0.0 0
M  V30 15 N 0.6322 2.2121 0.0 0
M  V30 END ATOM
M  V30 BEGIN BOND
M  V30 1 2 1 2
M  V30 2 1 2 3
M  V30 3 1 4 2
M  V30 4 1 3 5
M  V30 5 1 6 4
M  V30 6 1 4 7 CFG=1
M  V30 7 1 6 8 CFG=1
M  V30 8 1 7 9
M  V30 9 1 8 10
M  V30 10 1 10 11
M  V30 11 2 10 12
M  V30 12 1 11 13
M  V30 13 1 11 14
M  V30 14 1 12 15
M  V30 15 1 5 6
M  V30 16 2 13 15
M  V30 END BOND
M  V30 BEGIN COLLECTION
M  V30 MDLV30/STERAC1 ATOMS=(2 4 6)
M  V30 END COLLECTION
M  V30 END CTAB
M  END
>  <Molecule Name>


>  <status>
-

>  <cas>
92-13-7

>  <name>
PILOCARPINE

>  <ID>
417

>  <Smiles>
CC[C@@H]([C@@H](Cc1cncn1C)CO1)C1=O

$$$$

Actelion Java MolfileCreator 2.0

  0  0  0  0  0  0              0 V3000
M  V30 BEGIN CTAB
M  V30 COUNTS 25 25 0 0 0
M  V30 BEGIN ATOM
M  V30 1 O 4.3301 4.0 0.0 0
M  V30 2 C 4.3301 3.0 0.0 0
M  V30 3 O 5.1961 2.5 0.0 0 CHG=-1
M  V30 4 C 3.4641 2.5 0.0 0
M  V30 5 C 3.4641 1.5 0.0 0
M  V30 6 C 2.598 1.0 0.0 0
M  V30 7 C 2.598 0.0 0.0 0
M  V30 8 C 1.732 -0.5 0.0 0
M  V30 9 C 0.866 0.0 0.0 0
M  V30 10 C 0.0 -0.5 0.0 0 CFG=1
M  V30 11 C -0.9135 -0.0932 0.0 0 CFG=2
M  V30 12 C -0.1045 -1.4945 0.0 0 CFG=2
M  V30 13 C -1.1214 0.8848 0.0 0
M  V30 14 C -1.5826 -0.8364 0.0 0 CFG=2
M  V30 15 O 0.6386 -2.1636 0.0 0
M  V30 16 C -1.0826 -1.7024 0.0 0
M  V30 17 C -2.0725 1.1939 0.0 0
M  V30 18 O -2.5771 -0.7318 0.0 0
M  V30 19 C -2.2804 2.172 0.0 0 CFG=2
M  V30 20 O -1.5372 2.8411 0.0 0
M  V30 21 C -3.2314 2.481 0.0 0
M  V30 22 C -3.4393 3.4592 0.0 0
M  V30 23 C -4.3904 3.7682 0.0 0
M  V30 24 C -4.5983 4.7463 0.0 0
M  V30 25 C -5.5494 5.0553 0.0 0
M  V30 END ATOM
M  V30 BEGIN BOND
M  V30 1 2 1 2
M  V30 2 1 2 3
M  V30 3 1 2 4
M  V30 4 1 4 5
M  V30 5 1 5 6
M  V30 6 1 6 7
M  V30 7 2 7 8
M  V30 8 1 8 9
M  V30 9 1 10 9 CFG=3
M  V30 10 1 11 10
M  V30 11 1 12 10
M  V30 12 1 11 13 CFG=1
M  V30 13 1 14 11
M  V30 14 1 12 15 CFG=3
M  V30 15 1 12 16
M  V30 16 2 13 17
M  V30 17 1 14 18 CFG=3
M  V30 18 1 19 17
M  V30 19 1 19 20 CFG=1
M  V30 20 1 19 21
M  V30 21 1 21 22
M  V30 22 1 22 23
M  V30 23 1 23 24
M  V30 24 1 24 25
M  V30 25 1 14 16
M  V30 END BOND
M  V30 BEGIN COLLECTION
M  V30 MDLV30/STERAC1 ATOMS=(5 10 11 12 14 19)
M  V30 END COLLECTION
M  V30 END CTAB
M  END
>  <Molecule Name>


>  <status>
DISCONTINUED

>  <cas>
551-11-1

>  <name>
DINOPROST

>  <ID>
418

>  <Smiles>
CCCCC[C@H](/C=C/[C@@H]([C@H](C/C=C\CCCC([O-])=O)[C@@H](C1)O)[C@H]1O)O

$$$$

Actelion Java MolfileCreator 2.0

  0  0  0  0  0  0              0 V3000
M  V30 BEGIN CTAB
M  V30 COUNTS 28 31 0 0 0
M  V30 BEGIN ATOM
M  V30 1 O 1.732 -0.5 0.0 0
M  V30 2 C 0.866 0.0 0.0 0
M  V30 3 N 0.866 1.0 0.0 0
M  V30 4 C 0.0 -0.5 0.0 0
M  V30 5 C 1.732 1.4999 0.0 0
M  V30 6 C 0.0 1.4999 0.0 0
M  V30 7 O -0.9135 -0.0932 0.0 0
M  V30 8 C -0.1045 -1.4945 0.0 0
M  V30 9 C 1.732 2.5 0.0 0
M  V30 10 C 0.0 2.5 0.0 0
M  V30 11 C -1.5826 -0.8364 0.0 0
M  V30 12 C -1.0826 -1.7024 0.0 0
M  V30 13 N 0.866 3.0 0.0 0
M  V30 14 C 0.866 4.0 0.0 0
M  V30 15 N 1.732 4.5 0.0 0
M  V30 16 N 0.0 4.4999 0.0 0
M  V30 17 C 1.732 5.5 0.0 0
M  V30 18 C 0.0 5.4999 0.0 0
M  V30 19 N 2.598 6.0 0.0 0
M  V30 20 C 0.866 6.0 0.0 0
M  V30 21 C -0.866 5.9999 0.0 0
M  V30 22 C 0.866 7.0 0.0 0
M  V30 23 C -0.866 6.9999 0.0 0
M  V30 24 C 0.0 7.4999 0.0 0
M  V30 25 O -1.732 7.5 0.0 0
M  V30 26 O 0.0 8.5 0.0 0
M  V30 27 C -2.598 6.9999 0.0 0
M  V30 28 C -0.866 8.9999 0.0 0
M  V30 END ATOM
M  V30 BEGIN BOND
M  V30 1 2 1 2
M  V30 2 1 2 3
M  V30 3 1 2 4
M  V30 4 1 3 5
M  V30 5 1 3 6
M  V30 6 1 4 7
M  V30 7 2 4 8
M  V30 8 1 5 9
M  V30 9 1 6 10
M  V30 10 1 7 11
M  V30 11 1 8 12
M  V30 12 1 9 13
M  V30 13 1 13 14
M  V30 14 1 14 15
M  V30 15 2 14 16
M  V30 16 2 15 17
M  V30 17 1 16 18
M  V30 18 1 17 19
M  V30 19 1 17 20
M  V30 20 2 18 21
M  V30 21 2 20 22
M  V30 22 1 21 23
M  V30 23 1 22 24
M  V30 24 1 23 25
M  V30 25 1 24 26
M  V30 26 1 25 27
M  V30 27 1 26 28
M  V30 28 1 10 13
M  V30 29 2 11 12
M  V30 30 1 18 20
M  V30 31 2 23 24
M  V30 END BOND
M  V30 END CTAB
M  END
>  <Molecule Name>


>  <status>
-

>  <cas>
19216-56-9

>  <name>
PRAZOSIN

>  <ID>
419

>  <Smiles>
COc(cc1c(N)nc(N(CC2)CCN2C(c2ccco2)=O)nc1c1)c1OC

$$$$

Actelion Java MolfileCreator 2.0

  0  0  0  0  0  0              0 V3000
M  V30 BEGIN CTAB
M  V30 COUNTS 23 25 0 0 0
M  V30 BEGIN ATOM
M  V30 1 O 6.3022 4.9611 0.0 0
M  V30 2 N 5.3076 4.8566 0.0 0 CHG=1
M  V30 3 O 4.7199 5.6656 0.0 0 CHG=-1
M  V30 4 C 4.9009 3.943 0.0 0
M  V30 5 C 3.9064 3.8385 0.0 0
M  V30 6 C 5.4887 3.134 0.0 0
M  V30 7 C 3.4997 2.9249 0.0 0
M  V30 8 C 5.082 2.2205 0.0 0
M  V30 9 C 4.0874 2.1159 0.0 0
M  V30 10 C 3.6807 1.2024 0.0 0
M  V30 11 O 2.7026 0.9945 0.0 0
M  V30 12 C 4.1807 0.3364 0.0 0
M  V30 13 C 2.598 0.0 0.0 0
M  V30 14 C 3.5116 -0.4067 0.0 0
M  V30 15 C 1.732 -0.5 0.0 0
M  V30 16 N 0.866 0.0 0.0 0
M  V30 17 N 0.0 -0.5 0.0 0
M  V30 18 C -0.9135 -0.0932 0.0 0
M  V30 19 C -0.1045 -1.4945 0.0 0
M  V30 20 O -1.1214 0.8848 0.0 0
M  V30 21 N -1.5826 -0.8364 0.0 0
M  V30 22 C -1.0826 -1.7024 0.0 0
M  V30 23 O -1.4894 -2.6159 0.0 0
M  V30 END ATOM
M  V30 BEGIN BOND
M  V30 1 2 1 2
M  V30 2 1 2 3
M  V30 3 1 2 4
M  V30 4 2 4 5
M  V30 5 1 4 6
M  V30 6 1 5 7
M  V30 7 2 6 8
M  V30 8 2 7 9
M  V30 9 1 9 10
M  V30 10 1 10 11
M  V30 11 2 10 12
M  V30 12 1 11 13
M  V30 13 1 12 14
M  V30 14 1 13 15
M  V30 15 2 15 16
M  V30 16 1 16 17
M  V30 17 1 17 18
M  V30 18 1 17 19
M  V30 19 2 18 20
M  V30 20 1 18 21
M  V30 21 1 19 22
M  V30 22 2 22 23
M  V30 23 1 8 9
M  V30 24 2 13 14
M  V30 25 1 21 22
M  V30 END BOND
M  V30 END CTAB
M  END
>  <Molecule Name>


>  <status>
-

>  <cas>
7261-97-4

>  <name>
DANTROLENE

>  <ID>
420

>  <Smiles>
[O-][N+](c(cc1)ccc1-c1ccc(/C=N/N(CC(N2)=O)C2=O)o1)=O

$$$$

Actelion Java MolfileCreator 2.0

  0  0  0  0  0  0              0 V3000
M  V30 BEGIN CTAB
M  V30 COUNTS 25 26 0 0 0
M  V30 BEGIN ATOM
M  V30 1 O 6.0621 0.0 0.0 0
M  V30 2 C 5.1961 -0.5 0.0 0
M  V30 3 N 5.0711 -1.6249 0.0 0
M  V30 4 C 4.3301 0.0 0.0 0 CFG=2
M  V30 5 C 4.3301 0.9999 0.0 0
M  V30 6 C 4.3301 -1.0 0.0 0
M  V30 7 C 3.4641 -0.5 0.0 0
M  V30 8 N 5.1961 1.4999 0.0 0
M  V30 9 C 3.4641 1.5 0.0 0
M  V30 10 C 3.4641 -1.5 0.0 0
M  V30 11 C 5.3897 -1.5215 0.0 0
M  V30 12 C 2.598 0.0 0.0 0
M  V30 13 C 5.1961 2.4999 0.0 0
M  V30 14 C 3.4641 2.5 0.0 0
M  V30 15 C 3.4641 -2.5 0.0 0
M  V30 16 C 5.1961 -2.4999 0.0 0
M  V30 17 N 1.732 -0.5 0.0 0
M  V30 18 C 4.3301 2.9999 0.0 0
M  V30 19 C 4.3301 -3.0 0.0 0
M  V30 20 C 1.732 -1.5 0.0 0
M  V30 21 C 0.866 0.0 0.0 0
M  V30 22 C 0.866 -2.0 0.0 0
M  V30 23 C 2.598 -1.9999 0.0 0
M  V30 24 C 0.866 1.0 0.0 0
M  V30 25 C 0.0 -0.5 0.0 0
M  V30 END ATOM
M  V30 BEGIN BOND
M  V30 1 2 1 2
M  V30 2 1 2 3
M  V30 3 1 4 2
M  V30 4 1 4 5
M  V30 5 1 4 6 CFG=1
M  V30 6 1 4 7
M  V30 7 2 5 8
M  V30 8 1 5 9
M  V30 9 2 6 10
M  V30 10 1 6 11
M  V30 11 1 7 12
M  V30 12 1 8 13
M  V30 13 2 9 14
M  V30 14 1 10 15
M  V30 15 2 11 16
M  V30 16 1 12 17
M  V30 17 2 13 18
M  V30 18 2 15 19
M  V30 19 1 17 20
M  V30 20 1 17 21
M  V30 21 1 20 22
M  V30 22 1 20 23
M  V30 23 1 21 24
M  V30 24 1 21 25
M  V30 25 1 14 18
M  V30 26 1 16 19
M  V30 END BOND
M  V30 BEGIN COLLECTION
M  V30 MDLV30/STERAC1 ATOMS=(1 4)
M  V30 END COLLECTION
M  V30 END CTAB
M  END
>  <Molecule Name>


>  <status>
-

>  <cas>
3737-09-5

>  <name>
DISOPYRAMIDE

>  <ID>
421

>  <Smiles>
CC(C)N(CCC(C(N)=O)(c1ccccc1)c1ncccc1)C(C)C

$$$$

Actelion Java MolfileCreator 2.0

  0  0  0  0  0  0              0 V3000
M  V30 BEGIN CTAB
M  V30 COUNTS 25 27 0 0 0
M  V30 BEGIN ATOM
M  V30 1 Cl 0.866 0.9999 0.0 0
M  V30 2 C 1.732 1.4999 0.0 0
M  V30 3 C 2.598 1.0 0.0 0
M  V30 4 C 1.732 2.4999 0.0 0
M  V30 5 C 3.4641 1.5 0.0 0
M  V30 6 C 2.598 0.0 0.0 0 CFG=1
M  V30 7 C 2.598 3.0 0.0 0
M  V30 8 C 3.4641 2.5 0.0 0
M  V30 9 O 1.732 -0.5 0.0 0
M  V30 10 C 3.4641 -0.5 0.0 0
M  V30 11 Cl 2.598 4.0 0.0 0
M  V30 12 C 0.866 0.0 0.0 0
M  V30 13 N 4.3301 0.0 0.0 0
M  V30 14 C 0.0 -0.5 0.0 0
M  V30 15 C 5.2436 -0.4067 0.0 0
M  V30 16 C 4.4346 0.9945 0.0 0
M  V30 17 C -0.866 0.0 0.0 0
M  V30 18 C 0.0 -1.4999 0.0 0
M  V30 19 N 5.9128 0.3364 0.0 0
M  V30 20 C 5.4128 1.2024 0.0 0
M  V30 21 Cl -0.866 1.0 0.0 0
M  V30 22 C -1.732 -0.4999 0.0 0
M  V30 23 C -0.866 -1.9999 0.0 0
M  V30 24 C -1.732 -1.4999 0.0 0
M  V30 25 Cl -2.598 -1.9999 0.0 0
M  V30 END ATOM
M  V30 BEGIN BOND
M  V30 1 1 1 2
M  V30 2 2 2 3
M  V30 3 1 2 4
M  V30 4 1 3 5
M  V30 5 1 6 3
M  V30 6 2 4 7
M  V30 7 2 5 8
M  V30 8 1 6 9 CFG=3
M  V30 9 1 6 10
M  V30 10 1 7 11
M  V30 11 1 9 12
M  V30 12 1 10 13
M  V30 13 1 12 14
M  V30 14 1 13 15
M  V30 15 1 13 16
M  V30 16 2 14 17
M  V30 17 1 14 18
M  V30 18 2 15 19
M  V30 19 2 16 20
M  V30 20 1 17 21
M  V30 21 1 17 22
M  V30 22 2 18 23
M  V30 23 2 22 24
M  V30 24 1 24 25
M  V30 25 1 7 8
M  V30 26 1 19 20
M  V30 27 1 23 24
M  V30 END BOND
M  V30 BEGIN COLLECTION
M  V30 MDLV30/STERAC1 ATOMS=(1 6)
M  V30 END COLLECTION
M  V30 END CTAB
M  END
>  <Molecule Name>


>  <status>
-

>  <cas>
22916-47-8

>  <name>
MICONAZOLE

>  <ID>
422

>  <Smiles>
Clc1cc(Cl)c(COC(Cn2cncc2)c(ccc(Cl)c2)c2Cl)cc1

$$$$

Actelion Java MolfileCreator 2.0

  0  0  0  0  0  0              0 V3000
M  V30 BEGIN CTAB
M  V30 COUNTS 15 15 0 0 0
M  V30 BEGIN ATOM
M  V30 1 O 4.3301 3.0 0.0 0
M  V30 2 C 5.1961 2.5 0.0 0
M  V30 3 O 6.0621 3.0 0.0 0 CHG=-1
M  V30 4 C 5.1961 1.5 0.0 0 CFG=1
M  V30 5 C 4.3301 1.0 0.0 0
M  V30 6 C 6.0621 1.0 0.0 0
M  V30 7 C 3.4641 1.5 0.0 0
M  V30 8 C 4.3301 0.0 0.0 0
M  V30 9 C 2.598 0.9999 0.0 0
M  V30 10 C 3.4641 -0.4999 0.0 0
M  V30 11 C 2.598 0.0 0.0 0
M  V30 12 C 1.732 -0.5 0.0 0
M  V30 13 C 0.866 0.0 0.0 0
M  V30 14 C 0.866 1.0 0.0 0
M  V30 15 C 0.0 -0.5 0.0 0
M  V30 END ATOM
M  V30 BEGIN BOND
M  V30 1 2 1 2
M  V30 2 1 2 3
M  V30 3 1 4 2
M  V30 4 1 4 5
M  V30 5 1 4 6 CFG=3
M  V30 6 2 5 7
M  V30 7 1 5 8
M  V30 8 1 7 9
M  V30 9 2 8 10
M  V30 10 2 9 11
M  V30 11 1 11 12
M  V30 12 1 12 13
M  V30 13 1 13 14
M  V30 14 1 13 15
M  V30 15 1 10 11
M  V30 END BOND
M  V30 BEGIN COLLECTION
M  V30 MDLV30/STERAC1 ATOMS=(1 4)
M  V30 END COLLECTION
M  V30 END CTAB
M  END
>  <Molecule Name>


>  <status>
-

>  <cas>
15687-27-1

>  <name>
IBUPROFEN

>  <ID>
423

>  <Smiles>
CC(C)Cc1ccc(C(C)C([O-])=O)cc1

$$$$

Actelion Java MolfileCreator 2.0

  0  0  0  0  0  0              0 V3000
M  V30 BEGIN CTAB
M  V30 COUNTS 34 38 0 0 0
M  V30 BEGIN ATOM
M  V30 1 F 6.9282 1.4999 0.0 0
M  V30 2 C 6.0621 0.9999 0.0 0
M  V30 3 C 5.1961 1.4999 0.0 0
M  V30 4 C 6.0621 0.0 0.0 0
M  V30 5 C 4.3301 0.9999 0.0 0
M  V30 6 C 5.1961 -0.5 0.0 0
M  V30 7 C 4.3301 0.0 0.0 0
M  V30 8 C 3.4641 -0.5 0.0 0
M  V30 9 C 3.4641 -1.5 0.0 0
M  V30 10 C 2.598 0.0 0.0 0
M  V30 11 C 2.598 -1.9999 0.0 0
M  V30 12 C 4.3301 -2.0 0.0 0
M  V30 13 C 1.732 -0.5 0.0 0
M  V30 14 C 2.598 -2.9999 0.0 0
M  V30 15 C 4.3301 -3.0 0.0 0
M  V30 16 C 0.866 0.0 0.0 0
M  V30 17 C 3.4641 -3.5 0.0 0
M  V30 18 N 0.0 -0.5 0.0 0
M  V30 19 F 3.4641 -4.5 0.0 0
M  V30 20 C -0.866 0.0 0.0 0
M  V30 21 C 0.0 -1.4999 0.0 0
M  V30 22 C -1.732 -0.4999 0.0 0
M  V30 23 C -0.866 -1.9999 0.0 0
M  V30 24 C -1.732 -1.4999 0.0 0
M  V30 25 N -2.598 -1.9999 0.0 0
M  V30 26 C -3.5116 -1.5932 0.0 0
M  V30 27 C -2.7026 -2.9945 0.0 0
M  V30 28 O -3.7195 -0.6151 0.0 0
M  V30 29 N -4.1807 -2.3364 0.0 0
M  V30 30 C -3.6807 -3.2024 0.0 0
M  V30 31 C -2.0334 -3.7376 0.0 0
M  V30 32 C -3.9897 -4.1534 0.0 0
M  V30 33 C -2.3424 -4.6887 0.0 0
M  V30 34 C -3.3206 -4.8966 0.0 0
M  V30 END ATOM
M  V30 BEGIN BOND
M  V30 1 1 1 2
M  V30 2 2 2 3
M  V30 3 1 2 4
M  V30 4 1 3 5
M  V30 5 2 4 6
M  V30 6 2 5 7
M  V30 7 1 7 8
M  V30 8 1 8 9
M  V30 9 1 8 10
M  V30 10 2 9 11
M  V30 11 1 9 12
M  V30 12 1 10 13
M  V30 13 1 11 14
M  V30 14 2 12 15
M  V30 15 1 13 16
M  V30 16 2 14 17
M  V30 17 1 16 18
M  V30 18 1 17 19
M  V30 19 1 18 20
M  V30 20 1 18 21
M  V30 21 1 20 22
M  V30 22 1 21 23
M  V30 23 1 22 24
M  V30 24 1 24 25
M  V30 25 1 25 26
M  V30 26 1 25 27
M  V30 27 2 26 28
M  V30 28 1 26 29
M  V30 29 2 27 30
M  V30 30 1 27 31
M  V30 31 1 30 32
M  V30 32 2 31 33
M  V30 33 2 32 34
M  V30 34 1 6 7
M  V30 35 1 15 17
M  V30 36 1 23 24
M  V30 37 1 29 30
M  V30 38 1 33 34
M  V30 END BOND
M  V30 END CTAB
M  END
>  <Molecule Name>


>  <status>
-

>  <cas>
2062-78-4

>  <name>
PIMOZIDE

>  <ID>
424

>  <Smiles>
O=C1N(C2CCN(CCCC(c(cc3)ccc3F)c(cc3)ccc3F)CC2)c(cccc2)c2N1

$$$$

Actelion Java MolfileCreator 2.0

  0  0  0  0  0  0              0 V3000
M  V30 BEGIN CTAB
M  V30 COUNTS 22 24 0 0 0
M  V30 BEGIN ATOM
M  V30 1 O 2.598 -2.25 0.0 0
M  V30 2 C 2.598 -0.75 0.0 0
M  V30 3 O 3.8971 0.0 0.0 0
M  V30 4 N 1.299 0.0 0.0 0
M  V30 5 C 5.1961 -0.75 0.0 0
M  V30 6 C 0.0 -0.75 0.0 0
M  V30 7 N -1.3703 -0.1398 0.0 0
M  V30 8 N -0.1567 -2.2417 0.0 0
M  V30 9 C -2.374 -1.2546 0.0 0
M  V30 10 C -1.624 -2.5536 0.0 0
M  V30 11 C -3.874 -1.2546 0.0 0
M  V30 12 C -2.374 -3.8526 0.0 0
M  V30 13 C -4.624 -2.5536 0.0 0
M  V30 14 C -3.874 -3.8526 0.0 0
M  V30 15 C -4.624 -5.1517 0.0 0
M  V30 16 O -6.124 -5.1517 0.0 0
M  V30 17 C -3.874 -6.4507 0.0 0
M  V30 18 C -4.624 -7.7498 0.0 0
M  V30 19 C -2.374 -6.4507 0.0 0
M  V30 20 C -3.874 -9.0488 0.0 0
M  V30 21 C -1.624 -7.7498 0.0 0
M  V30 22 C -2.374 -9.0488 0.0 0
M  V30 END ATOM
M  V30 BEGIN BOND
M  V30 1 2 1 2
M  V30 2 1 2 3
M  V30 3 1 2 4
M  V30 4 1 3 5
M  V30 5 1 4 6
M  V30 6 2 6 7
M  V30 7 1 6 8
M  V30 8 1 7 9
M  V30 9 1 8 10
M  V30 10 1 9 11
M  V30 11 1 10 12
M  V30 12 2 11 13
M  V30 13 2 12 14
M  V30 14 1 14 15
M  V30 15 2 15 16
M  V30 16 1 15 17
M  V30 17 2 17 18
M  V30 18 1 17 19
M  V30 19 1 18 20
M  V30 20 2 19 21
M  V30 21 2 20 22
M  V30 22 2 9 10
M  V30 23 1 13 14
M  V30 24 1 21 22
M  V30 END BOND
M  V30 END CTAB
M  END
>  <Molecule Name>


>  <status>
-

>  <cas>
31431-39-7

>  <name>
MEBENDAZOLE

>  <ID>
425

>  <Smiles>
COC(Nc1nc(ccc(C(c2ccccc2)=O)c2)c2[nH]1)=O

$$$$

Actelion Java MolfileCreator 2.0

  0  0  0  0  0  0              0 V3000
M  V30 BEGIN CTAB
M  V30 COUNTS 23 26 0 0 0
M  V30 BEGIN ATOM
M  V30 1 Cl 0.866 0.0 0.0 0
M  V30 2 C 0.0 -0.5 0.0 0
M  V30 3 C -0.866 0.0 0.0 0
M  V30 4 C 0.0 -1.4999 0.0 0
M  V30 5 C -1.732 -0.4999 0.0 0
M  V30 6 C -0.866 -1.9999 0.0 0
M  V30 7 C -2.5138 0.1234 0.0 0
M  V30 8 C -1.732 -1.4999 0.0 0
M  V30 9 N -3.4888 -0.099 0.0 0
M  V30 10 N -2.2913 1.0984 0.0 0
M  V30 11 O -2.5138 -2.1234 0.0 0
M  V30 12 C -3.9226 -0.9999 0.0 0
M  V30 13 C -1.3357 1.3931 0.0 0
M  V30 14 C -3.0244 1.7785 0.0 0
M  V30 15 C -3.4888 -1.9009 0.0 0
M  V30 16 C -4.9198 -0.9252 0.0 0
M  V30 17 C -1.1132 2.3681 0.0 0
M  V30 18 C -2.8018 2.7535 0.0 0
M  V30 19 C -4.0521 -2.7272 0.0 0
M  V30 20 C -5.4832 -1.7515 0.0 0
M  V30 21 N -1.8463 3.0482 0.0 0
M  V30 22 C -5.0493 -2.6524 0.0 0
M  V30 23 C -1.6237 4.0232 0.0 0
M  V30 END ATOM
M  V30 BEGIN BOND
M  V30 1 1 1 2
M  V30 2 2 2 3
M  V30 3 1 2 4
M  V30 4 1 3 5
M  V30 5 2 4 6
M  V30 6 1 5 7
M  V30 7 2 5 8
M  V30 8 2 7 9
M  V30 9 1 7 10
M  V30 10 1 8 11
M  V30 11 1 9 12
M  V30 12 1 10 13
M  V30 13 1 10 14
M  V30 14 1 11 15
M  V30 15 1 12 16
M  V30 16 1 13 17
M  V30 17 1 14 18
M  V30 18 1 15 19
M  V30 19 2 16 20
M  V30 20 1 17 21
M  V30 21 2 19 22
M  V30 22 1 21 23
M  V30 23 1 6 8
M  V30 24 2 12 15
M  V30 25 1 18 21
M  V30 26 1 20 22
M  V30 END BOND
M  V30 END CTAB
M  END
>  <Molecule Name>


>  <status>
-

>  <cas>
1977-10-2

>  <name>
LOXAPINE

>  <ID>
426

>  <Smiles>
CN(CC1)CCN1C1=Nc(cccc2)c2Oc(cc2)c1cc2Cl

$$$$

Actelion Java MolfileCreator 2.0

  0  0  0  0  0  0              0 V3000
M  V30 BEGIN CTAB
M  V30 COUNTS 26 27 0 0 0
M  V30 BEGIN ATOM
M  V30 1 O 3.9818 0.0 0.0 0
M  V30 2 C 2.6545 -0.7663 0.0 0
M  V30 3 O 2.9831 -2.1017 0.0 0
M  V30 4 C 1.3272 0.0 0.0 0 CFG=2
M  V30 5 C 3.9818 -3.0652 0.0 0
M  V30 6 O 1.3272 1.5326 0.0 0
M  V30 7 C 1.3272 -1.5326 0.0 0
M  V30 8 C 0.0 -0.7663 0.0 0
M  V30 9 C 3.9818 -4.5978 0.0 0
M  V30 10 C 0.196 -2.3096 0.0 0
M  V30 11 C 2.4902 -2.3974 0.0 0
M  V30 12 C -1.3272 0.0 0.0 0
M  V30 13 C -0.3761 -2.3501 0.0 0
M  V30 14 C 3.9818 -6.1304 0.0 0
M  V30 15 C 0.0 -3.8315 0.0 0
M  V30 16 C 2.6545 -3.8315 0.0 0
M  V30 17 C -2.6545 -0.7663 0.0 0
M  V30 18 C -1.3272 -3.0652 0.0 0
M  V30 19 C 3.9818 -7.663 0.0 0
M  V30 20 C 1.3272 -4.5978 0.0 0
M  V30 21 C -2.6545 -2.2989 0.0 0
M  V30 22 N 2.6545 -8.4293 0.0 0
M  V30 23 C 2.6545 -9.9619 0.0 0
M  V30 24 C 1.3272 -7.663 0.0 0
M  V30 25 C 3.9818 -10.7282 0.0 0
M  V30 26 C 1.3272 -6.1304 0.0 0
M  V30 END ATOM
M  V30 BEGIN BOND
M  V30 1 2 1 2
M  V30 2 1 2 3
M  V30 3 1 4 2
M  V30 4 1 3 5
M  V30 5 1 4 6
M  V30 6 1 4 7 CFG=1
M  V30 7 1 4 8
M  V30 8 1 5 9
M  V30 9 2 7 10
M  V30 10 1 7 11
M  V30 11 1 8 12
M  V30 12 1 8 13
M  V30 13 3 9 14
M  V30 14 1 10 15
M  V30 15 2 11 16
M  V30 16 1 12 17
M  V30 17 1 13 18
M  V30 18 1 14 19
M  V30 19 2 15 20
M  V30 20 1 17 21
M  V30 21 1 19 22
M  V30 22 1 22 23
M  V30 23 1 22 24
M  V30 24 1 23 25
M  V30 25 1 24 26
M  V30 26 1 16 20
M  V30 27 1 18 21
M  V30 END BOND
M  V30 BEGIN COLLECTION
M  V30 MDLV30/STERAC1 ATOMS=(1 4)
M  V30 END COLLECTION
M  V30 END CTAB
M  END
>  <Molecule Name>


>  <status>
-

>  <cas>
5633-20-5

>  <name>
OXYBUTYNIN

>  <ID>
427

>  <Smiles>
CCN(CC)CC#CCOC(C(C1CCCCC1)(c1ccccc1)O)=O

$$$$

Actelion Java MolfileCreator 2.0

  0  0  0  0  0  0              0 V3000
M  V30 BEGIN CTAB
M  V30 COUNTS 28 29 0 0 0
M  V30 BEGIN ATOM
M  V30 1 O 9.5262 0.9999 0.0 0
M  V30 2 C 8.6602 1.4999 0.0 0
M  V30 3 N 7.7942 0.9999 0.0 0
M  V30 4 C 8.6602 2.4999 0.0 0
M  V30 5 C 6.9282 1.4999 0.0 0
M  V30 6 C 9.5262 2.9999 0.0 0
M  V30 7 C 7.7942 2.9999 0.0 0
M  V30 8 C 6.0621 0.9999 0.0 0
M  V30 9 C 9.5262 3.9999 0.0 0
M  V30 10 C 7.7942 4.0 0.0 0
M  V30 11 C 5.1961 1.4999 0.0 0
M  V30 12 C 6.0621 0.0 0.0 0
M  V30 13 O 10.3923 4.5 0.0 0
M  V30 14 C 8.6602 4.4999 0.0 0
M  V30 15 O 6.9282 4.5 0.0 0
M  V30 16 C 4.3301 0.9999 0.0 0
M  V30 17 C 5.1961 -0.5 0.0 0
M  V30 18 C 10.3923 5.5 0.0 0
M  V30 19 O 8.6602 5.4999 0.0 0
M  V30 20 C 6.0621 4.0 0.0 0
M  V30 21 C 4.3301 0.0 0.0 0
M  V30 22 C 7.7942 6.0 0.0 0
M  V30 23 O 3.4641 -0.5 0.0 0
M  V30 24 C 2.598 0.0 0.0 0
M  V30 25 C 1.732 -0.5 0.0 0
M  V30 26 N 0.866 0.0 0.0 0
M  V30 27 C 0.866 1.0 0.0 0
M  V30 28 C 0.0 -0.5 0.0 0
M  V30 END ATOM
M  V30 BEGIN BOND
M  V30 1 2 1 2
M  V30 2 1 2 3
M  V30 3 1 2 4
M  V30 4 1 3 5
M  V30 5 2 4 6
M  V30 6 1 4 7
M  V30 7 1 5 8
M  V30 8 1 6 9
M  V30 9 2 7 10
M  V30 10 2 8 11
M  V30 11 1 8 12
M  V30 12 1 9 13
M  V30 13 2 9 14
M  V30 14 1 10 15
M  V30 15 1 11 16
M  V30 16 2 12 17
M  V30 17 1 13 18
M  V30 18 1 14 19
M  V30 19 1 15 20
M  V30 20 2 16 21
M  V30 21 1 19 22
M  V30 22 1 21 23
M  V30 23 1 23 24
M  V30 24 1 24 25
M  V30 25 1 25 26
M  V30 26 1 26 27
M  V30 27 1 26 28
M  V30 28 1 10 14
M  V30 29 1 17 21
M  V30 END BOND
M  V30 END CTAB
M  END
>  <Molecule Name>


>  <status>
-

>  <cas>
138-56-7

>  <name>
TRIMETHOBENZAMIDE

>  <ID>
428

>  <Smiles>
CN(C)CCOc1ccc(CNC(c(cc2OC)cc(OC)c2OC)=O)cc1

$$$$

Actelion Java MolfileCreator 2.0

  0  0  0  0  0  0              0 V3000
M  V30 BEGIN CTAB
M  V30 COUNTS 22 24 0 0 0
M  V30 BEGIN ATOM
M  V30 1 Cl 3.0059 -7.408 0.0 0
M  V30 2 C 1.9064 -6.3877 0.0 0
M  V30 3 C 2.2401 -4.9253 0.0 0
M  V30 4 C 0.473 -6.8299 0.0 0
M  V30 5 C 3.6735 -4.4832 0.0 0
M  V30 6 C 1.1406 -3.9051 0.0 0
M  V30 7 C -0.6265 -5.8096 0.0 0
M  V30 8 N 4.6938 -5.5828 0.0 0
M  V30 9 C 3.8971 -3.0 0.0 0
M  V30 10 C -0.2927 -4.3472 0.0 0
M  V30 11 C 6.1896 -5.4707 0.0 0
M  V30 12 C 5.1961 -2.25 0.0 0
M  V30 13 C 2.598 -2.25 0.0 0
M  V30 14 C 7.0345 -4.2313 0.0 0
M  V30 15 N 6.5924 -2.798 0.0 0
M  V30 16 C 5.1961 -0.75 0.0 0
M  V30 17 C 2.598 -0.75 0.0 0
M  V30 18 O 8.5178 -4.4549 0.0 0
M  V30 19 C 3.8971 0.0 0.0 0
M  V30 20 N 1.299 0.0 0.0 0 CHG=1
M  V30 21 O 1.299 1.5 0.0 0
M  V30 22 O 0.0 -0.75 0.0 0 CHG=-1
M  V30 END ATOM
M  V30 BEGIN BOND
M  V30 1 1 1 2
M  V30 2 2 2 3
M  V30 3 1 2 4
M  V30 4 1 3 5
M  V30 5 1 3 6
M  V30 6 2 4 7
M  V30 7 2 5 8
M  V30 8 1 5 9
M  V30 9 2 6 10
M  V30 10 1 8 11
M  V30 11 2 9 12
M  V30 12 1 9 13
M  V30 13 1 11 14
M  V30 14 1 12 15
M  V30 15 1 12 16
M  V30 16 2 13 17
M  V30 17 2 14 18
M  V30 18 2 16 19
M  V30 19 1 17 20
M  V30 20 2 20 21
M  V30 21 1 20 22
M  V30 22 1 7 10
M  V30 23 1 14 15
M  V30 24 1 17 19
M  V30 END BOND
M  V30 END CTAB
M  END
>  <Molecule Name>


>  <status>
-

>  <cas>
1622-61-3

>  <name>
CLONAZEPAM

>  <ID>
429

>  <Smiles>
[O-][N+](c(cc1)cc(C(c(cccc2)c2Cl)=NC2)c1NC2=O)=O

$$$$

Actelion Java MolfileCreator 2.0

  0  0  0  0  0  0              0 V3000
M  V30 BEGIN CTAB
M  V30 COUNTS 16 16 0 0 0
M  V30 BEGIN ATOM
M  V30 1 O -2.598 -1.9999 0.0 0
M  V30 2 C -1.732 -1.4999 0.0 0
M  V30 3 N -0.866 -1.9999 0.0 0
M  V30 4 N -1.732 -0.4999 0.0 0
M  V30 5 C 0.0 -1.5 0.0 0
M  V30 6 C -0.866 0.0 0.0 0
M  V30 7 O 0.866 -2.0 0.0 0
M  V30 8 C 0.0 -0.5 0.0 0
M  V30 9 O -0.866 1.0 0.0 0
M  V30 10 C 0.866 0.0 0.0 0
M  V30 11 C 0.866 -1.0 0.0 0
M  V30 12 C 0.866 0.9999 0.0 0
M  V30 13 C 1.732 -0.5 0.0 0
M  V30 14 C 1.732 1.4999 0.0 0
M  V30 15 C 1.732 0.4999 0.0 0
M  V30 16 C 2.598 -1.0 0.0 0
M  V30 END ATOM
M  V30 BEGIN BOND
M  V30 1 2 1 2
M  V30 2 1 2 3
M  V30 3 1 2 4
M  V30 4 1 3 5
M  V30 5 1 4 6
M  V30 6 2 5 7
M  V30 7 1 5 8
M  V30 8 2 6 9
M  V30 9 1 8 10
M  V30 10 1 8 11
M  V30 11 1 10 12
M  V30 12 1 11 13
M  V30 13 2 12 14
M  V30 14 1 13 15
M  V30 15 1 13 16
M  V30 16 1 6 8
M  V30 END BOND
M  V30 END CTAB
M  END
>  <Molecule Name>


>  <status>
-

>  <cas>
77-26-9

>  <name>
BUTALBITAL

>  <ID>
430

>  <Smiles>
CC(C)CC(CC=C)(C(NC(N1)=O)=O)C1=O

$$$$

Actelion Java MolfileCreator 2.0

  0  0  0  0  0  0              0 V3000
M  V30 BEGIN CTAB
M  V30 COUNTS 35 36 0 0 0
M  V30 BEGIN ATOM
M  V30 1 S 3.8971 0.0 0.0 0
M  V30 2 C 5.1961 -0.75 0.0 0
M  V30 3 C 2.598 -0.75 0.0 0
M  V30 4 C 5.1961 -2.25 0.0 0
M  V30 5 C 6.4951 0.0 0.0 0
M  V30 6 S 1.299 0.0 0.0 0
M  V30 7 C 1.848 -2.049 0.0 0
M  V30 8 C 3.348 -2.049 0.0 0
M  V30 9 C 6.4951 -3.0 0.0 0
M  V30 10 C 7.7942 -0.75 0.0 0
M  V30 11 C 0.0 -0.75 0.0 0
M  V30 12 C 7.7942 -2.25 0.0 0
M  V30 13 C 6.4951 -4.5 0.0 0
M  V30 14 C 9.0932 0.0 0.0 0
M  V30 15 C -1.299 0.0 0.0 0
M  V30 16 C 0.0 -2.25 0.0 0
M  V30 17 O 9.0932 -3.0 0.0 0
M  V30 18 C 7.9952 -4.5 0.0 0
M  V30 19 C 6.4951 -6.0 0.0 0
M  V30 20 C 4.9951 -4.5 0.0 0
M  V30 21 C 8.3432 1.299 0.0 0
M  V30 22 C 10.3923 0.75 0.0 0
M  V30 23 C 9.8432 -1.299 0.0 0
M  V30 24 C -2.598 -0.75 0.0 0
M  V30 25 C -1.299 -3.0 0.0 0
M  V30 26 C -2.598 -2.25 0.0 0
M  V30 27 C -3.8971 0.0 0.0 0
M  V30 28 C -1.299 -4.5 0.0 0
M  V30 29 O -3.8971 -3.0 0.0 0
M  V30 30 C -4.6471 -1.299 0.0 0
M  V30 31 C -5.1961 0.75 0.0 0
M  V30 32 C -3.1471 1.299 0.0 0
M  V30 33 C 0.2009 -4.5 0.0 0
M  V30 34 C -1.299 -6.0 0.0 0
M  V30 35 C -2.799 -4.5 0.0 0
M  V30 END ATOM
M  V30 BEGIN BOND
M  V30 1 1 1 2
M  V30 2 1 1 3
M  V30 3 2 2 4
M  V30 4 1 2 5
M  V30 5 1 3 6
M  V30 6 1 3 7
M  V30 7 1 3 8
M  V30 8 1 4 9
M  V30 9 2 5 10
M  V30 10 1 6 11
M  V30 11 2 9 12
M  V30 12 1 9 13
M  V30 13 1 10 14
M  V30 14 2 11 15
M  V30 15 1 11 16
M  V30 16 1 12 17
M  V30 17 1 13 18
M  V30 18 1 13 19
M  V30 19 1 13 20
M  V30 20 1 14 21
M  V30 21 1 14 22
M  V30 22 1 14 23
M  V30 23 1 15 24
M  V30 24 2 16 25
M  V30 25 2 24 26
M  V30 26 1 24 27
M  V30 27 1 25 28
M  V30 28 1 26 29
M  V30 29 1 27 30
M  V30 30 1 27 31
M  V30 31 1 27 32
M  V30 32 1 28 33
M  V30 33 1 28 34
M  V30 34 1 28 35
M  V30 35 1 10 12
M  V30 36 1 25 26
M  V30 END BOND
M  V30 END CTAB
M  END
>  <Molecule Name>


>  <status>
DISCONTINUED

>  <cas>
23288-49-5

>  <name>
PROBUCOL

>  <ID>
431

>  <Smiles>
CC(C)(C)c1cc(SC(C)(C)Sc(cc2C(C)(C)C)cc(C(C)(C)C)c2O)cc(C(C)(C)C)c1O

$$$$

Actelion Java MolfileCreator 2.0

  0  0  0  0  0  0              0 V3000
M  V30 BEGIN CTAB
M  V30 COUNTS 21 24 0 0 0
M  V30 BEGIN ATOM
M  V30 1 N 3.4641 -0.5 0.0 0
M  V30 2 C 2.598 0.0 0.0 0
M  V30 3 C 4.3301 0.0 0.0 0
M  V30 4 C 1.732 -0.5 0.0 0
M  V30 5 C 0.866 0.0 0.0 0
M  V30 6 C 0.0 -0.5 0.0 0 CFG=2
M  V30 7 C -0.7991 0.1011 0.0 0
M  V30 8 C -0.2568 -1.5073 0.0 0
M  V30 9 C 0.194 -2.3 0.0 0
M  V30 10 C -1.7193 -0.2904 0.0 0
M  V30 11 C -0.6781 1.0937 0.0 0
M  V30 12 C -0.9361 -1.7961 0.0 0
M  V30 13 C 0.6879 -2.0925 0.0 0
M  V30 14 C -0.6765 -2.6703 0.0 0
M  V30 15 C -2.5184 0.3106 0.0 0
M  V30 16 C -1.8403 -1.2831 0.0 0 CFG=2
M  V30 17 C -1.4773 1.6948 0.0 0
M  V30 18 C -1.1659 -2.8799 0.0 0
M  V30 19 C 0.5572 -3.0864 0.0 0
M  V30 20 C -2.3975 1.3033 0.0 0
M  V30 21 C -0.3629 -3.4779 0.0 0
M  V30 END ATOM
M  V30 BEGIN BOND
M  V30 1 1 1 2
M  V30 2 1 1 3
M  V30 3 1 2 4
M  V30 4 1 4 5
M  V30 5 1 6 5 CFG=1
M  V30 6 1 6 7
M  V30 7 1 6 8
M  V30 8 1 6 9
M  V30 9 2 7 10
M  V30 10 1 7 11
M  V30 11 2 8 12
M  V30 12 1 8 13
M  V30 13 1 9 14
M  V30 14 1 10 15
M  V30 15 1 16 10
M  V30 16 2 11 17
M  V30 17 1 12 18
M  V30 18 2 13 19
M  V30 19 2 15 20
M  V30 20 2 18 21
M  V30 21 1 12 16
M  V30 22 1 16 14 CFG=3
M  V30 23 1 17 20
M  V30 24 1 19 21
M  V30 END BOND
M  V30 BEGIN COLLECTION
M  V30 MDLV30/STEABS ATOMS=(2 6 16)
M  V30 END COLLECTION
M  V30 END CTAB
M  END
>  <Molecule Name>


>  <status>
DISCONTINUED

>  <cas>
10262-69-8

>  <name>
MAPROTILINE

>  <ID>
432

>  <Smiles>
CNCCC[C@](CC[C@@H]12)(c3c2cccc3)c2c1cccc2

$$$$

Actelion Java MolfileCreator 2.0

  0  0  0  0  0  0              0 V3000
M  V30 BEGIN CTAB
M  V30 COUNTS 16 16 0 0 0
M  V30 BEGIN ATOM
M  V30 1 O 5.1961 -0.75 0.0 0
M  V30 2 C 3.8971 0.0 0.0 0
M  V30 3 O 3.8971 1.5 0.0 0 CHG=-1
M  V30 4 C 2.598 -0.75 0.0 0 CFG=1
M  V30 5 N 2.598 -2.25 0.0 0
M  V30 6 C 1.299 0.0 0.0 0
M  V30 7 C 3.8971 -1.5 0.0 0
M  V30 8 N 1.299 -3.0 0.0 0
M  V30 9 C 0.0 -0.75 0.0 0
M  V30 10 C -1.299 0.0 0.0 0
M  V30 11 C 0.0 -2.2499 0.0 0
M  V30 12 C -2.598 -0.7499 0.0 0
M  V30 13 C -1.299 -2.9999 0.0 0
M  V30 14 O -3.8971 0.0 0.0 0
M  V30 15 C -2.598 -2.2499 0.0 0
M  V30 16 O -3.8971 -2.9999 0.0 0
M  V30 END ATOM
M  V30 BEGIN BOND
M  V30 1 2 1 2
M  V30 2 1 2 3
M  V30 3 1 4 2
M  V30 4 1 4 5
M  V30 5 1 4 6
M  V30 6 1 4 7 CFG=3
M  V30 7 1 5 8
M  V30 8 1 6 9
M  V30 9 2 9 10
M  V30 10 1 9 11
M  V30 11 1 10 12
M  V30 12 2 11 13
M  V30 13 1 12 14
M  V30 14 2 12 15
M  V30 15 1 15 16
M  V30 16 1 13 15
M  V30 END BOND
M  V30 BEGIN COLLECTION
M  V30 MDLV30/STERAC1 ATOMS=(1 4)
M  V30 END COLLECTION
M  V30 END CTAB
M  END
>  <Molecule Name>


>  <status>
-

>  <cas>
28860-95-9

>  <name>
CARBIDOPA

>  <ID>
433

>  <Smiles>
CC(Cc(cc1)cc(O)c1O)(C([O-])=O)NN

$$$$

Actelion Java MolfileCreator 2.0

  0  0  0  0  0  0              0 V3000
M  V30 BEGIN CTAB
M  V30 COUNTS 31 35 0 0 0
M  V30 BEGIN ATOM
M  V30 1 Cl 3.9308 0.0 0.0 0
M  V30 2 C 2.6205 -0.7564 0.0 0
M  V30 3 C 1.2657 0.0741 0.0 0
M  V30 4 O 1.3102 1.5129 0.0 0
M  V30 5 C 0.0 -0.7564 0.0 0 CFG=2
M  V30 6 O -0.3145 0.7234 0.0 0
M  V30 7 C 1.1243 -1.7688 0.0 0 CFG=2
M  V30 8 C -1.3102 -1.5129 0.0 0 CFG=2
M  V30 9 C -1.8192 0.8815 0.0 0
M  V30 10 C 0.5089 -3.151 0.0 0 CFG=1
M  V30 11 C 2.629 -1.6107 0.0 0
M  V30 12 C 1.6107 -0.5 0.0 0
M  V30 13 O -2.4346 -0.5006 0.0 0
M  V30 14 C -0.9957 -2.9929 0.0 0
M  V30 15 C -1.8192 2.3945 0.0 0
M  V30 16 C -3.1295 1.638 0.0 0
M  V30 17 C 1.3982 -4.3751 0.0 0 CFG=1
M  V30 18 C 3.5183 -2.8347 0.0 0 CFG=1
M  V30 19 C 2.9029 -4.2169 0.0 0 CFG=1
M  V30 20 C 0.7829 -5.7572 0.0 0
M  V30 21 O 5.023 -2.6766 0.0 0
M  V30 22 F 4.4076 -3.8696 0.0 0
M  V30 23 C 3.7923 -5.4409 0.0 0 CFG=2
M  V30 24 C 1.6722 -6.9813 0.0 0
M  V30 25 C 3.1769 -6.8231 0.0 0
M  V30 26 C 5.297 -5.2828 0.0 0
M  V30 27 C 4.4076 -4.437 0.0 0
M  V30 28 C 4.0662 -8.0472 0.0 0
M  V30 29 C 6.1863 -6.5068 0.0 0
M  V30 30 C 5.5709 -7.889 0.0 0
M  V30 31 O 6.4602 -9.113 0.0 0
M  V30 END ATOM
M  V30 BEGIN BOND
M  V30 1 1 1 2
M  V30 2 1 2 3
M  V30 3 2 3 4
M  V30 4 1 5 3 CFG=3
M  V30 5 1 5 6
M  V30 6 1 7 5
M  V30 7 1 8 5
M  V30 8 1 6 9
M  V30 9 1 10 7
M  V30 10 1 7 11
M  V30 11 1 7 12 CFG=3
M  V30 12 1 8 13 CFG=1
M  V30 13 1 8 14
M  V30 14 1 9 15
M  V30 15 1 9 16
M  V30 16 1 17 10
M  V30 17 1 18 11
M  V30 18 1 19 17
M  V30 19 1 17 20 CFG=1
M  V30 20 1 18 21 CFG=3
M  V30 21 1 19 22 CFG=1
M  V30 22 1 23 19
M  V30 23 1 20 24
M  V30 24 1 23 25
M  V30 25 1 23 26
M  V30 26 1 23 27 CFG=3
M  V30 27 2 25 28
M  V30 28 1 26 29
M  V30 29 1 28 30
M  V30 30 2 30 31
M  V30 31 1 9 13
M  V30 32 1 10 14 CFG=3
M  V30 33 1 18 19
M  V30 34 1 24 25
M  V30 35 1 29 30
M  V30 END BOND
M  V30 BEGIN COLLECTION
M  V30 MDLV30/STERAC1 ATOMS=(8 5 7 8 10 17 18 19 23)
M  V30 END COLLECTION
M  V30 END CTAB
M  END
>  <Molecule Name>


>  <status>
-

>  <cas>
3093-35-4

>  <name>
HALCINONIDE

>  <ID>
434

>  <Smiles>
CC(C)(O[C@@H]1C[C@@H]([C@H](CCC([C@]2(C)CC3)=CC3=O)[C@@]22F)[C@]3(C)C[C@@H]2O)O[C@@]13C(CCl)=O

$$$$

Actelion Java MolfileCreator 2.0

  0  0  0  0  0  0              0 V3000
M  V30 BEGIN CTAB
M  V30 COUNTS 25 29 0 0 0
M  V30 BEGIN ATOM
M  V30 1 O 1.9262 8.9506 0.0 0
M  V30 2 N 0.4589 9.2625 0.0 0
M  V30 3 C 2.083 7.4589 0.0 0
M  V30 4 C -0.291 7.9635 0.0 0
M  V30 5 C 0.7126 6.8488 0.0 0
M  V30 6 C 3.2965 6.5772 0.0 0
M  V30 7 C 0.5558 5.357 0.0 0
M  V30 8 C 3.1397 5.0854 0.0 0
M  V30 9 C 1.7694 4.4753 0.0 0 CFG=2
M  V30 10 C 4.3532 4.2037 0.0 0
M  V30 11 C 1.6126 2.9835 0.0 0 CFG=1
M  V30 12 C 0.399 3.8652 0.0 0
M  V30 13 C 4.1964 2.7119 0.0 0
M  V30 14 C 2.8261 2.1018 0.0 0 CFG=2
M  V30 15 C 0.2423 2.3734 0.0 0
M  V30 16 C 2.6693 0.6101 0.0 0 CFG=2
M  V30 17 C 0.0855 0.8816 0.0 0
M  V30 18 C 1.299 0.0 0.0 0 CFG=1
M  V30 19 C 3.673 -0.5046 0.0 0
M  V30 20 C 1.4558 -1.4917 0.0 0 CFG=1
M  V30 21 C 0.0 -0.75 0.0 0
M  V30 22 C 2.923 -1.8036 0.0 0
M  V30 23 O 1.844 -2.9406 0.0 0
M  V30 24 C 0.3411 -2.4954 0.0 0
M  V30 25 C -0.7736 -3.4991 0.0 0
M  V30 END ATOM
M  V30 BEGIN BOND
M  V30 1 1 1 2
M  V30 2 1 1 3
M  V30 3 2 2 4
M  V30 4 2 3 5
M  V30 5 1 3 6
M  V30 6 1 5 7
M  V30 7 2 6 8
M  V30 8 1 9 7
M  V30 9 1 8 10
M  V30 10 1 11 9
M  V30 11 1 9 12 CFG=1
M  V30 12 1 10 13
M  V30 13 1 14 11
M  V30 14 1 11 15 CFG=1
M  V30 15 1 16 14
M  V30 16 1 15 17
M  V30 17 1 18 16
M  V30 18 1 16 19 CFG=1
M  V30 19 1 20 18
M  V30 20 1 18 21 CFG=1
M  V30 21 1 19 22
M  V30 22 1 20 23 CFG=1
M  V30 23 1 20 24
M  V30 24 3 24 25
M  V30 25 1 4 5
M  V30 26 1 8 9
M  V30 27 1 14 13 CFG=3
M  V30 28 1 17 18
M  V30 29 1 20 22
M  V30 END BOND
M  V30 BEGIN COLLECTION
M  V30 MDLV30/STERAC1 ATOMS=(6 9 11 14 16 18 20)
M  V30 END COLLECTION
M  V30 END CTAB
M  END
>  <Molecule Name>


>  <status>
-

>  <cas>
17230-88-5

>  <name>
DANAZOL

>  <ID>
435

>  <Smiles>
C[C@@](CC1)([C@H](CC2)[C@@H](CC3)[C@@H]1[C@](C)(C1)C3=Cc3c1cno3)[C@]2(C#C)O

$$$$

Actelion Java MolfileCreator 2.0

  0  0  0  0  0  0              0 V3000
M  V30 BEGIN CTAB
M  V30 COUNTS 18 19 0 0 0
M  V30 BEGIN ATOM
M  V30 1 O 3.8971 0.0 0.0 0
M  V30 2 C 2.598 -0.75 0.0 0
M  V30 3 O 2.598 -2.25 0.0 0 CHG=-1
M  V30 4 C 1.299 0.0 0.0 0 CFG=1
M  V30 5 C 1.299 1.5 0.0 0
M  V30 6 C 0.0 -0.75 0.0 0
M  V30 7 C 2.598 2.25 0.0 0
M  V30 8 C 0.0 2.2499 0.0 0
M  V30 9 C 2.598 3.75 0.0 0
M  V30 10 C 0.0 3.75 0.0 0
M  V30 11 O 3.8971 4.5 0.0 0
M  V30 12 C 1.299 4.5 0.0 0
M  V30 13 C 3.8971 6.0 0.0 0
M  V30 14 C 5.1961 6.75 0.0 0
M  V30 15 C 2.598 6.75 0.0 0
M  V30 16 C 5.1961 8.25 0.0 0
M  V30 17 C 2.598 8.25 0.0 0
M  V30 18 C 3.8971 9.0 0.0 0
M  V30 END ATOM
M  V30 BEGIN BOND
M  V30 1 2 1 2
M  V30 2 1 2 3
M  V30 3 1 4 2
M  V30 4 1 4 5
M  V30 5 1 4 6 CFG=3
M  V30 6 2 5 7
M  V30 7 1 5 8
M  V30 8 1 7 9
M  V30 9 2 8 10
M  V30 10 1 9 11
M  V30 11 2 9 12
M  V30 12 1 11 13
M  V30 13 2 13 14
M  V30 14 1 13 15
M  V30 15 1 14 16
M  V30 16 2 15 17
M  V30 17 2 16 18
M  V30 18 1 10 12
M  V30 19 1 17 18
M  V30 END BOND
M  V30 BEGIN COLLECTION
M  V30 MDLV30/STERAC1 ATOMS=(1 4)
M  V30 END COLLECTION
M  V30 END CTAB
M  END
>  <Molecule Name>


>  <status>
-

>  <cas>
29679-58-1

>  <name>
FENOPROFEN

>  <ID>
436

>  <Smiles>
CC(C([O-])=O)c1cc(Oc2ccccc2)ccc1

$$$$

Actelion Java MolfileCreator 2.0

  0  0  0  0  0  0              0 V3000
M  V30 BEGIN CTAB
M  V30 COUNTS 20 21 0 0 0
M  V30 BEGIN ATOM
M  V30 1 S 2.598 -0.75 0.0 0
M  V30 2 O 1.848 -2.049 0.0 0
M  V30 3 O 3.348 -2.049 0.0 0
M  V30 4 N 1.299 0.0 0.0 0
M  V30 5 C 3.8971 0.0 0.0 0
M  V30 6 C 0.0 -0.75 0.0 0
M  V30 7 C 5.1961 -0.75 0.0 0
M  V30 8 C 3.8971 1.5 0.0 0
M  V30 9 N -1.299 0.0 0.0 0
M  V30 10 C 0.0 -2.25 0.0 0
M  V30 11 C 6.4952 0.0 0.0 0
M  V30 12 C 5.1961 2.25 0.0 0
M  V30 13 C -2.598 -0.75 0.0 0
M  V30 14 C -1.299 -3.0 0.0 0
M  V30 15 C 6.4952 1.5 0.0 0
M  V30 16 O -3.8971 0.0 0.0 0
M  V30 17 N -2.598 -2.25 0.0 0
M  V30 18 N 7.7942 2.25 0.0 0
M  V30 19 C -3.8971 -3.0 0.0 0
M  V30 20 C -3.8971 -4.5 0.0 0
M  V30 END ATOM
M  V30 BEGIN BOND
M  V30 1 2 1 2
M  V30 2 2 1 3
M  V30 3 1 1 4
M  V30 4 1 1 5
M  V30 5 1 4 6
M  V30 6 2 5 7
M  V30 7 1 5 8
M  V30 8 2 6 9
M  V30 9 1 6 10
M  V30 10 1 7 11
M  V30 11 2 8 12
M  V30 12 1 9 13
M  V30 13 2 10 14
M  V30 14 2 11 15
M  V30 15 2 13 16
M  V30 16 1 13 17
M  V30 17 1 15 18
M  V30 18 1 17 19
M  V30 19 1 19 20
M  V30 20 1 12 15
M  V30 21 1 14 17
M  V30 END BOND
M  V30 END CTAB
M  END
>  <Molecule Name>


>  <status>
DISCONTINUED

>  <cas>
17784-12-2

>  <name>
SULFACYTINE

>  <ID>
437

>  <Smiles>
CCN(C=CC(NS(c(cc1)ccc1N)(=O)=O)=N1)C1=O

$$$$

Actelion Java MolfileCreator 2.0

  0  0  0  0  0  0              0 V3000
M  V30 BEGIN CTAB
M  V30 COUNTS 36 39 0 0 0
M  V30 BEGIN ATOM
M  V30 1 Cl 2.0506 -1.3291 0.0 0
M  V30 2 C 2.2723 0.0427 0.0 0 CFG=2
M  V30 3 C 0.8161 -0.3474 0.0 0 CFG=2
M  V30 4 C 3.3383 -1.0232 0.0 0 CFG=1
M  V30 5 C 2.6624 1.4989 0.0 0 CFG=2
M  V30 6 C -0.2498 0.7185 0.0 0
M  V30 7 C 0.4259 -1.8036 0.0 0
M  V30 8 C 1.545 -1.5819 0.0 0
M  V30 9 O 2.9481 -2.4794 0.0 0
M  V30 10 C 4.7201 -0.612 0.0 0
M  V30 11 C 4.1186 1.8891 0.0 0 CFG=1
M  V30 12 C 1.5964 2.5649 0.0 0
M  V30 13 C -1.706 0.3284 0.0 0
M  V30 14 C 0.1402 2.1747 0.0 0
M  V30 15 C -1.0302 -2.1937 0.0 0
M  V30 16 C 5.1847 0.8231 0.0 0 CFG=1
M  V30 17 C 4.8031 3.2324 0.0 0
M  V30 18 C -2.0962 -1.1277 0.0 0
M  V30 19 C 6.5279 1.5075 0.0 0 CFG=1
M  V30 20 C 6.2716 -0.3375 0.0 0
M  V30 21 C 6.2921 2.9965 0.0 0 CFG=1
M  V30 22 O -3.5524 -1.5179 0.0 0
M  V30 23 O 7.8712 0.8231 0.0 0
M  V30 24 C 6.6505 0.1148 0.0 0
M  V30 25 C 7.3581 4.0625 0.0 0
M  V30 26 C 9.1355 1.6442 0.0 0
M  V30 27 O 7.8335 -0.7537 0.0 0
M  V30 28 C 5.3711 -0.7957 0.0 0
M  V30 29 O 9.0566 3.1497 0.0 0
M  V30 30 C 10.4788 0.9598 0.0 0
M  V30 31 O 5.2223 -2.2613 0.0 0
M  V30 32 C 11.7431 1.7808 0.0 0
M  V30 33 C 6.5279 -3.0151 0.0 0
M  V30 34 O 7.8335 -2.2613 0.0 0
M  V30 35 C 6.5279 -4.5226 0.0 0
M  V30 36 C 7.8335 -5.2764 0.0 0
M  V30 END ATOM
M  V30 BEGIN BOND
M  V30 1 1 2 1 CFG=1
M  V30 2 1 3 2
M  V30 3 1 4 2
M  V30 4 1 5 2
M  V30 5 1 3 6
M  V30 6 1 3 7
M  V30 7 1 3 8 CFG=3
M  V30 8 1 4 9 CFG=3
M  V30 9 1 4 10
M  V30 10 1 11 5
M  V30 11 1 5 12 CFG=1
M  V30 12 2 6 13
M  V30 13 1 6 14
M  V30 14 2 7 15
M  V30 15 1 16 10
M  V30 16 1 11 17 CFG=3
M  V30 17 1 13 18
M  V30 18 1 19 16
M  V30 19 1 16 20 CFG=3
M  V30 20 1 21 17
M  V30 21 2 18 22
M  V30 22 1 19 23
M  V30 23 1 19 24 CFG=3
M  V30 24 1 21 25 CFG=3
M  V30 25 1 23 26
M  V30 26 2 24 27
M  V30 27 1 24 28
M  V30 28 2 26 29
M  V30 29 1 26 30
M  V30 30 1 28 31
M  V30 31 1 30 32
M  V30 32 1 31 33
M  V30 33 2 33 34
M  V30 34 1 33 35
M  V30 35 1 35 36
M  V30 36 1 11 16
M  V30 37 1 12 14
M  V30 38 1 15 18
M  V30 39 1 19 21
M  V30 END BOND
M  V30 BEGIN COLLECTION
M  V30 MDLV30/STERAC1 ATOMS=(8 2 3 4 5 11 16 19 21)
M  V30 END COLLECTION
M  V30 END CTAB
M  END
>  <Molecule Name>


>  <status>
-

>  <cas>
5534-09-8

>  <name>
BECLOMETHASONE DIPROPIONATE

>  <ID>
438

>  <Smiles>
CCC(OCC([C@@]([C@@H](C)C1)([C@@](C)(C[C@@H]2O)[C@@H]1[C@H](CCC([C@]1(C)C=C3)=CC3=O)[C@@]12Cl)OC(CC)=O)=O)=O

$$$$

Actelion Java MolfileCreator 2.0

  0  0  0  0  0  0              0 V3000
M  V30 BEGIN CTAB
M  V30 COUNTS 10 9 0 0 0
M  V30 BEGIN ATOM
M  V30 1 Cl 3.4641 -0.5 0.0 0
M  V30 2 C 2.598 0.0 0.0 0 CFG=2
M  V30 3 O 1.732 -0.5 0.0 0
M  V30 4 C 2.598 1.0 0.0 0
M  V30 5 C 1.732 -1.5 0.0 0
M  V30 6 F 1.598 1.0 0.0 0
M  V30 7 F 2.598 2.0 0.0 0
M  V30 8 F 3.598 1.0 0.0 0
M  V30 9 F 2.598 -2.0 0.0 0
M  V30 10 F 0.866 -2.0 0.0 0
M  V30 END ATOM
M  V30 BEGIN BOND
M  V30 1 1 2 1 CFG=3
M  V30 2 1 2 3
M  V30 3 1 2 4
M  V30 4 1 3 5
M  V30 5 1 4 6
M  V30 6 1 4 7
M  V30 7 1 4 8
M  V30 8 1 5 9
M  V30 9 1 5 10
M  V30 END BOND
M  V30 BEGIN COLLECTION
M  V30 MDLV30/STERAC1 ATOMS=(1 2)
M  V30 END COLLECTION
M  V30 END CTAB
M  END
>  <Molecule Name>


>  <status>
-

>  <cas>
26675-46-7

>  <name>
ISOFLURANE

>  <ID>
439

>  <Smiles>
FC(OC(C(F)(F)F)Cl)F

$$$$

Actelion Java MolfileCreator 2.0

  0  0  0  0  0  0              0 V3000
M  V30 BEGIN CTAB
M  V30 COUNTS 13 13 0 0 0
M  V30 BEGIN ATOM
M  V30 1 O 2.8116 -2.7819 0.0 0
M  V30 2 C 4.2382 -3.2454 0.0 0
M  V30 3 N 4.55 -4.7127 0.0 0
M  V30 4 C 5.3529 -2.2417 0.0 0
M  V30 5 N 6.8201 -2.5536 0.0 0
M  V30 6 C 5.1961 -0.75 0.0 0
M  V30 7 C 7.5701 -1.2546 0.0 0
M  V30 8 N 6.5664 -0.1398 0.0 0
M  V30 9 N 3.8971 0.0 0.0 0
M  V30 10 N 3.8971 1.4999 0.0 0
M  V30 11 N 2.598 2.2499 0.0 0
M  V30 12 C 1.299 1.4999 0.0 0
M  V30 13 C 2.598 3.75 0.0 0
M  V30 END ATOM
M  V30 BEGIN BOND
M  V30 1 2 1 2
M  V30 2 1 2 3
M  V30 3 1 2 4
M  V30 4 2 4 5
M  V30 5 1 4 6
M  V30 6 1 5 7
M  V30 7 1 6 8
M  V30 8 2 6 9
M  V30 9 1 9 10
M  V30 10 1 10 11
M  V30 11 1 11 12
M  V30 12 1 11 13
M  V30 13 2 7 8
M  V30 END BOND
M  V30 END CTAB
M  END
>  <Molecule Name>


>  <status>
-

>  <cas>
4342-03-4

>  <name>
DACARBAZINE

>  <ID>
440

>  <Smiles>
CN(C)N/N=C1\N=CN=C1C(N)=O

$$$$

Actelion Java MolfileCreator 2.0

  0  0  0  0  0  0              0 V3000
M  V30 BEGIN CTAB
M  V30 COUNTS 26 27 0 0 0
M  V30 BEGIN ATOM
M  V30 1 O 3.9818 0.0 0.0 0
M  V30 2 C 2.6545 -0.7663 0.0 0
M  V30 3 O 2.9831 -2.1017 0.0 0
M  V30 4 C 1.3272 0.0 0.0 0 CFG=2
M  V30 5 C 3.9818 -3.0652 0.0 0
M  V30 6 O 1.3272 1.5326 0.0 0
M  V30 7 C 1.3272 -1.5326 0.0 0
M  V30 8 C 0.0 -0.7663 0.0 0
M  V30 9 C 3.9818 -4.5978 0.0 0
M  V30 10 C 0.196 -2.3096 0.0 0
M  V30 11 C 2.4902 -2.3974 0.0 0
M  V30 12 C -1.3272 0.0 0.0 0
M  V30 13 C -0.3761 -2.3501 0.0 0
M  V30 14 C 3.9818 -6.1304 0.0 0
M  V30 15 C 0.0 -3.8315 0.0 0
M  V30 16 C 2.6545 -3.8315 0.0 0
M  V30 17 C -2.6545 -0.7663 0.0 0
M  V30 18 C -1.3272 -3.0652 0.0 0
M  V30 19 C 3.9818 -7.663 0.0 0
M  V30 20 C 1.3272 -4.5978 0.0 0
M  V30 21 C -2.6545 -2.2989 0.0 0
M  V30 22 N 2.6545 -8.4293 0.0 0
M  V30 23 C 2.6545 -9.9619 0.0 0
M  V30 24 C 1.3272 -7.663 0.0 0
M  V30 25 C 3.9818 -10.7282 0.0 0
M  V30 26 C 1.3272 -6.1304 0.0 0
M  V30 END ATOM
M  V30 BEGIN BOND
M  V30 1 2 1 2
M  V30 2 1 2 3
M  V30 3 1 4 2
M  V30 4 1 3 5
M  V30 5 1 4 6
M  V30 6 1 4 7 CFG=1
M  V30 7 1 4 8
M  V30 8 1 5 9
M  V30 9 2 7 10
M  V30 10 1 7 11
M  V30 11 1 8 12
M  V30 12 1 8 13
M  V30 13 3 9 14
M  V30 14 1 10 15
M  V30 15 2 11 16
M  V30 16 1 12 17
M  V30 17 1 13 18
M  V30 18 1 14 19
M  V30 19 2 15 20
M  V30 20 1 17 21
M  V30 21 1 19 22
M  V30 22 1 22 23
M  V30 23 1 22 24
M  V30 24 1 23 25
M  V30 25 1 24 26
M  V30 26 1 16 20
M  V30 27 1 18 21
M  V30 END BOND
M  V30 BEGIN COLLECTION
M  V30 MDLV30/STERAC1 ATOMS=(1 4)
M  V30 END COLLECTION
M  V30 END CTAB
M  END
>  <Molecule Name>


>  <status>
-

>  <cas>
5633-20-5

>  <name>
OXYBUTYNIN

>  <ID>
441

>  <Smiles>
CCN(CC)CC#CCOC(C(C1CCCCC1)(c1ccccc1)O)=O

$$$$

Actelion Java MolfileCreator 2.0

  0  0  0  0  0  0              0 V3000
M  V30 BEGIN CTAB
M  V30 COUNTS 17 18 0 0 0
M  V30 BEGIN ATOM
M  V30 1 O 2.598 0.0 0.0 0
M  V30 2 C 1.732 -0.5 0.0 0
M  V30 3 O 1.732 -1.5 0.0 0 CHG=-1
M  V30 4 C 0.866 0.0 0.0 0 CFG=1
M  V30 5 C 0.866 1.0 0.0 0
M  V30 6 C 0.0 -0.5 0.0 0
M  V30 7 C 1.732 1.5 0.0 0
M  V30 8 C 0.0 1.5 0.0 0
M  V30 9 C 1.732 2.5 0.0 0
M  V30 10 C 0.0 2.5 0.0 0
M  V30 11 C 0.866 3.0 0.0 0
M  V30 12 C 2.598 2.9999 0.0 0
M  V30 13 C 0.866 4.0 0.0 0
M  V30 14 C 2.598 3.9999 0.0 0
M  V30 15 C 1.732 4.5 0.0 0
M  V30 16 O 1.732 5.4999 0.0 0
M  V30 17 C 0.866 6.0 0.0 0
M  V30 END ATOM
M  V30 BEGIN BOND
M  V30 1 2 1 2
M  V30 2 1 2 3
M  V30 3 1 4 2
M  V30 4 1 4 5
M  V30 5 1 4 6 CFG=3
M  V30 6 2 5 7
M  V30 7 1 5 8
M  V30 8 1 7 9
M  V30 9 2 8 10
M  V30 10 1 9 11
M  V30 11 2 9 12
M  V30 12 2 11 13
M  V30 13 1 12 14
M  V30 14 1 13 15
M  V30 15 1 15 16
M  V30 16 1 16 17
M  V30 17 1 10 11
M  V30 18 2 14 15
M  V30 END BOND
M  V30 BEGIN COLLECTION
M  V30 MDLV30/STERAC1 ATOMS=(1 4)
M  V30 END COLLECTION
M  V30 END CTAB
M  END
>  <Molecule Name>


>  <status>
-

>  <cas>
22204-53-1

>  <name>
NAPROXEN

>  <ID>
442

>  <Smiles>
CC(C([O-])=O)c(ccc1c2)cc1ccc2OC

$$$$

Actelion Java MolfileCreator 2.0

  0  0  0  0  0  0              0 V3000
M  V30 BEGIN CTAB
M  V30 COUNTS 15 15 0 0 0
M  V30 BEGIN ATOM
M  V30 1 Cl 7.7942 -0.75 0.0 0
M  V30 2 C 6.4951 0.0 0.0 0
M  V30 3 C 5.1961 -0.75 0.0 0
M  V30 4 N 3.8971 0.0 0.0 0
M  V30 5 N 3.8971 1.5 0.0 0
M  V30 6 C 2.598 -0.75 0.0 0
M  V30 7 O 2.598 2.25 0.0 0
M  V30 8 O 2.598 -2.25 0.0 0
M  V30 9 N 1.299 0.0 0.0 0
M  V30 10 C 0.0 -0.75 0.0 0
M  V30 11 C -1.299 0.0 0.0 0
M  V30 12 C 0.0 -2.2499 0.0 0
M  V30 13 C -2.598 -0.7499 0.0 0
M  V30 14 C -1.299 -2.9999 0.0 0
M  V30 15 C -2.598 -2.2499 0.0 0
M  V30 END ATOM
M  V30 BEGIN BOND
M  V30 1 1 1 2
M  V30 2 1 2 3
M  V30 3 1 3 4
M  V30 4 1 4 5
M  V30 5 1 4 6
M  V30 6 2 5 7
M  V30 7 2 6 8
M  V30 8 1 6 9
M  V30 9 1 9 10
M  V30 10 1 10 11
M  V30 11 1 10 12
M  V30 12 1 11 13
M  V30 13 1 12 14
M  V30 14 1 13 15
M  V30 15 1 14 15
M  V30 END BOND
M  V30 END CTAB
M  END
>  <Molecule Name>


>  <status>
-

>  <cas>
13010-47-4

>  <name>
LOMUSTINE

>  <ID>
443

>  <Smiles>
O=C(NC1CCCCC1)N(CCCl)N=O

$$$$

Actelion Java MolfileCreator 2.0

  0  0  0  0  0  0              0 V3000
M  V30 BEGIN CTAB
M  V30 COUNTS 13 14 0 0 0
M  V30 BEGIN ATOM
M  V30 1 Cl 0.866 0.0 0.0 0
M  V30 2 C 0.0 -0.5 0.0 0
M  V30 3 C -0.866 0.0 0.0 0
M  V30 4 C 0.0 -1.4999 0.0 0
M  V30 5 O -0.866 1.0 0.0 0
M  V30 6 C -1.732 -0.4999 0.0 0
M  V30 7 C -0.866 -1.9999 0.0 0
M  V30 8 N -2.598 0.0 0.0 0
M  V30 9 C -1.732 -1.4999 0.0 0
M  V30 10 Cl -0.866 -2.9999 0.0 0
M  V30 11 C -3.4641 -0.4999 0.0 0
M  V30 12 C -2.598 -1.9999 0.0 0
M  V30 13 C -3.4641 -1.4999 0.0 0
M  V30 END ATOM
M  V30 BEGIN BOND
M  V30 1 1 1 2
M  V30 2 2 2 3
M  V30 3 1 2 4
M  V30 4 1 3 5
M  V30 5 1 3 6
M  V30 6 2 4 7
M  V30 7 2 6 8
M  V30 8 1 6 9
M  V30 9 1 7 10
M  V30 10 1 8 11
M  V30 11 2 9 12
M  V30 12 2 11 13
M  V30 13 1 7 9
M  V30 14 1 12 13
M  V30 END BOND
M  V30 END CTAB
M  END
>  <Molecule Name>


>  <status>
DISCONTINUED

>  <cas>
773-76-2

>  <name>
CHLOROXINE

>  <ID>
444

>  <Smiles>
Oc(c1ncccc1c(Cl)c1)c1Cl

$$$$

Actelion Java MolfileCreator 2.0

  0  0  0  0  0  0              0 V3000
M  V30 BEGIN CTAB
M  V30 COUNTS 18 19 0 0 0
M  V30 BEGIN ATOM
M  V30 1 O 3.8971 0.0 0.0 0
M  V30 2 C 2.598 -0.75 0.0 0
M  V30 3 O 2.598 -2.25 0.0 0 CHG=-1
M  V30 4 C 1.299 0.0 0.0 0 CFG=1
M  V30 5 C 1.299 1.5 0.0 0
M  V30 6 C 0.0 -0.75 0.0 0
M  V30 7 C 2.598 2.25 0.0 0
M  V30 8 C 0.0 2.2499 0.0 0
M  V30 9 C 2.598 3.75 0.0 0
M  V30 10 C 0.0 3.75 0.0 0
M  V30 11 O 3.8971 4.5 0.0 0
M  V30 12 C 1.299 4.5 0.0 0
M  V30 13 C 3.8971 6.0 0.0 0
M  V30 14 C 5.1961 6.75 0.0 0
M  V30 15 C 2.598 6.75 0.0 0
M  V30 16 C 5.1961 8.25 0.0 0
M  V30 17 C 2.598 8.25 0.0 0
M  V30 18 C 3.8971 9.0 0.0 0
M  V30 END ATOM
M  V30 BEGIN BOND
M  V30 1 2 1 2
M  V30 2 1 2 3
M  V30 3 1 4 2
M  V30 4 1 4 5
M  V30 5 1 4 6 CFG=3
M  V30 6 2 5 7
M  V30 7 1 5 8
M  V30 8 1 7 9
M  V30 9 2 8 10
M  V30 10 1 9 11
M  V30 11 2 9 12
M  V30 12 1 11 13
M  V30 13 2 13 14
M  V30 14 1 13 15
M  V30 15 1 14 16
M  V30 16 2 15 17
M  V30 17 2 16 18
M  V30 18 1 10 12
M  V30 19 1 17 18
M  V30 END BOND
M  V30 BEGIN COLLECTION
M  V30 MDLV30/STERAC1 ATOMS=(1 4)
M  V30 END COLLECTION
M  V30 END CTAB
M  END
>  <Molecule Name>


>  <status>
-

>  <cas>
29679-58-1

>  <name>
FENOPROFEN

>  <ID>
445

>  <Smiles>
CC(C([O-])=O)c1cc(Oc2ccccc2)ccc1

$$$$

Actelion Java MolfileCreator 2.0

  0  0  0  0  0  0              0 V3000
M  V30 BEGIN CTAB
M  V30 COUNTS 25 28 0 0 0
M  V30 BEGIN ATOM
M  V30 1 Cl 3.9759 1.5303 0.0 0
M  V30 2 C 3.9759 0.0 0.0 0
M  V30 3 C 2.6506 -0.7651 0.0 0
M  V30 4 C 5.3013 -0.7651 0.0 0
M  V30 5 C 2.8392 -2.261 0.0 0
M  V30 6 C 1.3253 0.0 0.0 0
M  V30 7 C 5.3013 -2.2955 0.0 0
M  V30 8 C 3.9759 -3.0607 0.0 0
M  V30 9 N 1.3253 1.5303 0.0 0
M  V30 10 C 1.3253 -1.5303 0.0 0
M  V30 11 C 0.0 -0.7651 0.0 0
M  V30 12 C 2.5634 2.4298 0.0 0
M  V30 13 C 0.0872 2.4298 0.0 0
M  V30 14 C 0.1957 -2.3062 0.0 0
M  V30 15 C 2.2704 -2.3377 0.0 0
M  V30 16 C -1.3253 0.0 0.0 0
M  V30 17 C -0.3756 -2.3467 0.0 0
M  V30 18 N 2.0905 3.8853 0.0 0
M  V30 19 C 0.5601 3.8853 0.0 0
M  V30 20 C 0.0 -3.8259 0.0 0
M  V30 21 C 2.6506 -3.8259 0.0 0
M  V30 22 C -2.6506 -0.7651 0.0 0
M  V30 23 C -1.3253 -3.0607 0.0 0
M  V30 24 C 1.3253 -4.591 0.0 0
M  V30 25 C -2.6506 -2.2955 0.0 0
M  V30 END ATOM
M  V30 BEGIN BOND
M  V30 1 1 1 2
M  V30 2 2 2 3
M  V30 3 1 2 4
M  V30 4 1 3 5
M  V30 5 1 3 6
M  V30 6 2 4 7
M  V30 7 2 5 8
M  V30 8 1 6 9
M  V30 9 1 6 10
M  V30 10 1 6 11
M  V30 11 1 9 12
M  V30 12 1 9 13
M  V30 13 2 10 14
M  V30 14 1 10 15
M  V30 15 2 11 16
M  V30 16 1 11 17
M  V30 17 2 12 18
M  V30 18 2 13 19
M  V30 19 1 14 20
M  V30 20 2 15 21
M  V30 21 1 16 22
M  V30 22 2 17 23
M  V30 23 2 20 24
M  V30 24 2 22 25
M  V30 25 1 7 8
M  V30 26 1 18 19
M  V30 27 1 21 24
M  V30 28 1 23 25
M  V30 END BOND
M  V30 END CTAB
M  END
>  <Molecule Name>


>  <status>
-

>  <cas>
23593-75-1

>  <name>
CLOTRIMAZOLE

>  <ID>
446

>  <Smiles>
Clc1c(C(c2ccccc2)(c2ccccc2)n2cncc2)cccc1

$$$$

Actelion Java MolfileCreator 2.0

  0  0  0  0  0  0              0 V3000
M  V30 BEGIN CTAB
M  V30 COUNTS 10 9 0 0 0
M  V30 BEGIN ATOM
M  V30 1 Cl 3.4641 -0.5 0.0 0
M  V30 2 C 2.598 0.0 0.0 0 CFG=2
M  V30 3 O 1.732 -0.5 0.0 0
M  V30 4 C 2.598 1.0 0.0 0
M  V30 5 C 1.732 -1.5 0.0 0
M  V30 6 F 1.598 1.0 0.0 0
M  V30 7 F 2.598 2.0 0.0 0
M  V30 8 F 3.598 1.0 0.0 0
M  V30 9 F 2.598 -2.0 0.0 0
M  V30 10 F 0.866 -2.0 0.0 0
M  V30 END ATOM
M  V30 BEGIN BOND
M  V30 1 1 2 1 CFG=3
M  V30 2 1 2 3
M  V30 3 1 2 4
M  V30 4 1 3 5
M  V30 5 1 4 6
M  V30 6 1 4 7
M  V30 7 1 4 8
M  V30 8 1 5 9
M  V30 9 1 5 10
M  V30 END BOND
M  V30 BEGIN COLLECTION
M  V30 MDLV30/STERAC1 ATOMS=(1 2)
M  V30 END COLLECTION
M  V30 END CTAB
M  END
>  <Molecule Name>


>  <status>
-

>  <cas>
26675-46-7

>  <name>
ISOFLURANE

>  <ID>
447

>  <Smiles>
FC(OC(C(F)(F)F)Cl)F

$$$$

Actelion Java MolfileCreator 2.0

  0  0  0  0  0  0              0 V3000
M  V30 BEGIN CTAB
M  V30 COUNTS 19 20 0 0 0
M  V30 BEGIN ATOM
M  V30 1 O 5.082 2.2205 0.0 0
M  V30 2 C 4.0874 2.1159 0.0 0
M  V30 3 C 3.4997 2.9249 0.0 0
M  V30 4 C 3.6807 1.2024 0.0 0
M  V30 5 C 3.9064 3.8385 0.0 0
M  V30 6 C 2.5051 2.8204 0.0 0
M  V30 7 N 2.7026 0.9945 0.0 0
M  V30 8 C 4.1807 0.3364 0.0 0
M  V30 9 C 3.3186 4.6475 0.0 0
M  V30 10 C 1.9173 3.6294 0.0 0
M  V30 11 C 2.598 0.0 0.0 0
M  V30 12 C 1.9594 1.6636 0.0 0
M  V30 13 C 3.5116 -0.4067 0.0 0
M  V30 14 C 2.3241 4.543 0.0 0
M  V30 15 C 1.732 -0.5 0.0 0
M  V30 16 C 1.7363 5.352 0.0 0
M  V30 17 C 0.866 0.0 0.0 0
M  V30 18 O 0.866 1.0 0.0 0
M  V30 19 O 0.0 -0.5 0.0 0 CHG=-1
M  V30 END ATOM
M  V30 BEGIN BOND
M  V30 1 2 1 2
M  V30 2 1 2 3
M  V30 3 1 2 4
M  V30 4 2 3 5
M  V30 5 1 3 6
M  V30 6 1 4 7
M  V30 7 2 4 8
M  V30 8 1 5 9
M  V30 9 2 6 10
M  V30 10 1 7 11
M  V30 11 1 7 12
M  V30 12 1 8 13
M  V30 13 2 9 14
M  V30 14 1 11 15
M  V30 15 1 14 16
M  V30 16 1 15 17
M  V30 17 2 17 18
M  V30 18 1 17 19
M  V30 19 1 10 14
M  V30 20 2 11 13
M  V30 END BOND
M  V30 END CTAB
M  END
>  <Molecule Name>


>  <status>
-

>  <cas>
26171-23-3

>  <name>
TOLMETIN

>  <ID>
448

>  <Smiles>
Cc(cc1)ccc1C(c1ccc(CC([O-])=O)n1C)=O

$$$$
_c001
Actelion Java MolfileCreator 2.0

  0  0  0  0  0  0              0 V3000
M  V30 BEGIN CTAB
M  V30 COUNTS 23 24 0 0 0
M  V30 BEGIN ATOM
M  V30 1 O 2.598 -2.2499 0.0 0
M  V30 2 C 2.598 -0.75 0.0 0 CFG=2
M  V30 3 C 3.8971 -3.0 0.0 0 CFG=2
M  V30 4 O 1.299 0.0 0.0 0
M  V30 5 C 3.8971 0.0 0.0 0 CFG=1
M  V30 6 C 5.1961 -2.25 0.0 0 CFG=2
M  V30 7 C 3.8971 -4.5 0.0 0
M  V30 8 C 0.0 -0.75 0.0 0 CFG=2
M  V30 9 O 3.8971 1.4999 0.0 0
M  V30 10 C 5.1961 -0.75 0.0 0 CFG=1
M  V30 11 O 6.4951 -3.0 0.0 0
M  V30 12 O 2.598 -5.25 0.0 0
M  V30 13 C -0.1567 -2.2417 0.0 0 CFG=1
M  V30 14 C -1.3703 -0.1398 0.0 0 CFG=1
M  V30 15 O 6.4951 0.0 0.0 0
M  V30 16 O 0.9579 -3.2454 0.0 0
M  V30 17 C -1.624 -2.5536 0.0 0 CFG=2
M  V30 18 O -2.374 -1.2546 0.0 0
M  V30 19 C -1.6821 1.3273 0.0 0
M  V30 20 O -0.68 -3.7193 0.0 0
M  V30 21 C -2.2341 -3.9239 0.0 0
M  V30 22 O -0.5674 2.331 0.0 0
M  V30 23 O -1.3524 -5.1374 0.0 0
M  V30 END ATOM
M  V30 BEGIN BOND
M  V30 1 1 2 1
M  V30 2 1 3 1
M  V30 3 1 2 4 CFG=3
M  V30 4 1 5 2
M  V30 5 1 6 3
M  V30 6 1 3 7 CFG=3
M  V30 7 1 8 4 CFG=3
M  V30 8 1 5 9 CFG=1
M  V30 9 1 10 5
M  V30 10 1 6 11 CFG=3
M  V30 11 1 7 12
M  V30 12 1 13 8
M  V30 13 1 14 8
M  V30 14 1 10 15 CFG=3
M  V30 15 1 13 16 CFG=1
M  V30 16 1 17 13
M  V30 17 1 14 18
M  V30 18 1 14 19 CFG=1
M  V30 19 1 17 20 CFG=1
M  V30 20 1 17 21
M  V30 21 1 19 22
M  V30 22 1 21 23
M  V30 23 1 6 10
M  V30 24 1 17 18
M  V30 END BOND
M  V30 BEGIN COLLECTION
M  V30 MDLV30/STERAC1 ATOMS=(9 2 3 5 6 8 10 13 14 17)
M  V30 END COLLECTION
M  V30 END CTAB
M  END
>  <Molecule Name>
_c001

>  <status>
-

>  <cas>
4618-18-2

>  <name>
LACTULOSE

>  <ID>
449

>  <Smiles>
OC[C@@H]([C@@H]([C@H]1O)O[C@H]([C@H]([C@@H]2O)O)O[C@@H](CO)[C@H]2O)O[C@]1(CO)O

$$$$

Actelion Java MolfileCreator 2.0

  0  0  0  0  0  0              0 V3000
M  V30 BEGIN CTAB
M  V30 COUNTS 34 37 0 0 0
M  V30 BEGIN ATOM
M  V30 1 Cl 15.6823 -5.2816 0.0 0
M  V30 2 C 14.3754 -4.527 0.0 0
M  V30 3 C 14.3754 -3.018 0.0 0
M  V30 4 C 13.0686 -5.2816 0.0 0
M  V30 5 C 13.0686 -2.2635 0.0 0
M  V30 6 C 11.7617 -4.527 0.0 0
M  V30 7 C 11.7617 -3.018 0.0 0
M  V30 8 C 10.4548 -2.2635 0.0 0
M  V30 9 O 11.7617 -1.509 0.0 0
M  V30 10 C 10.4548 -0.7545 0.0 0
M  V30 11 C 9.148 -3.018 0.0 0
M  V30 12 C 9.148 0.0 0.0 0
M  V30 13 C 7.8411 -2.2635 0.0 0
M  V30 14 N 7.8411 -0.7545 0.0 0
M  V30 15 C 6.5343 0.0 0.0 0
M  V30 16 C 5.2274 -0.7545 0.0 0
M  V30 17 C 3.9205 0.0 0.0 0
M  V30 18 C 3.9205 1.509 0.0 0
M  V30 19 C 3.9205 -1.509 0.0 0
M  V30 20 C 2.6137 -0.7545 0.0 0
M  V30 21 C 5.2274 2.2635 0.0 0
M  V30 22 C 2.6137 2.2635 0.0 0
M  V30 23 C 2.536 -2.451 0.0 0
M  V30 24 C 5.2274 -2.2635 0.0 0
M  V30 25 O 2.7471 -1.9415 0.0 0
M  V30 26 N 1.3068 0.0 0.0 0
M  V30 27 C 5.2274 3.7725 0.0 0
M  V30 28 C 2.6137 3.7725 0.0 0
M  V30 29 C 2.6137 -3.7725 0.0 0
M  V30 30 C 5.2274 -3.7725 0.0 0
M  V30 31 C 1.3068 1.509 0.0 0
M  V30 32 C 0.0 -0.7545 0.0 0
M  V30 33 C 3.9205 4.527 0.0 0
M  V30 34 C 3.9205 -4.527 0.0 0
M  V30 END ATOM
M  V30 BEGIN BOND
M  V30 1 1 1 2
M  V30 2 2 2 3
M  V30 3 1 2 4
M  V30 4 1 3 5
M  V30 5 2 4 6
M  V30 6 2 5 7
M  V30 7 1 7 8
M  V30 8 1 8 9
M  V30 9 1 8 10
M  V30 10 1 8 11
M  V30 11 1 10 12
M  V30 12 1 11 13
M  V30 13 1 12 14
M  V30 14 1 14 15
M  V30 15 1 15 16
M  V30 16 1 16 17
M  V30 17 1 17 18
M  V30 18 1 17 19
M  V30 19 1 17 20
M  V30 20 2 18 21
M  V30 21 1 18 22
M  V30 22 2 19 23
M  V30 23 1 19 24
M  V30 24 2 20 25
M  V30 25 1 20 26
M  V30 26 1 21 27
M  V30 27 2 22 28
M  V30 28 1 23 29
M  V30 29 2 24 30
M  V30 30 1 26 31
M  V30 31 1 26 32
M  V30 32 2 27 33
M  V30 33 2 29 34
M  V30 34 1 6 7
M  V30 35 1 13 14
M  V30 36 1 28 33
M  V30 37 1 30 34
M  V30 END BOND
M  V30 END CTAB
M  END
>  <Molecule Name>


>  <status>
-

>  <cas>
53179-11-6

>  <name>
LOPERAMIDE

>  <ID>
450

>  <Smiles>
CN(C)C(C(CCN(CC1)CCC1(c(cc1)ccc1Cl)O)(c1ccccc1)c1ccccc1)=O

$$$$

Actelion Java MolfileCreator 2.0

  0  0  0  0  0  0              0 V3000
M  V30 BEGIN CTAB
M  V30 COUNTS 24 26 0 0 0
M  V30 BEGIN ATOM
M  V30 1 Cl 0.9897 -4.4219 0.0 0
M  V30 2 C 1.2122 -3.447 0.0 0
M  V30 3 C 2.1678 -3.1523 0.0 0
M  V30 4 C 0.4792 -2.7668 0.0 0
M  V30 5 C 2.3903 -2.1773 0.0 0
M  V30 6 C 0.7017 -1.7919 0.0 0
M  V30 7 C 3.3792 -2.0283 0.0 0
M  V30 8 C 1.6573 -1.4972 0.0 0
M  V30 9 N 3.8792 -1.1623 0.0 0
M  V30 10 C 3.9425 -2.8545 0.0 0
M  V30 11 N 1.732 -0.5 0.0 0
M  V30 12 C 3.5138 -0.2314 0.0 0
M  V30 13 C 3.5086 -3.7555 0.0 0
M  V30 14 C 4.9397 -2.7798 0.0 0
M  V30 15 C 2.5582 0.0633 0.0 0
M  V30 16 C 0.866 0.0 0.0 0
M  V30 17 C 4.0719 -4.5817 0.0 0
M  V30 18 C 5.503 -3.606 0.0 0
M  V30 19 O 2.4092 1.0521 0.0 0
M  V30 20 C 0.866 0.9999 0.0 0
M  V30 21 C 5.0691 -4.507 0.0 0
M  V30 22 F 1.866 1.0 0.0 0
M  V30 23 F 0.866 1.9999 0.0 0
M  V30 24 F -0.1339 0.9999 0.0 0
M  V30 END ATOM
M  V30 BEGIN BOND
M  V30 1 1 1 2
M  V30 2 2 2 3
M  V30 3 1 2 4
M  V30 4 1 3 5
M  V30 5 2 4 6
M  V30 6 1 5 7
M  V30 7 2 5 8
M  V30 8 2 7 9
M  V30 9 1 7 10
M  V30 10 1 8 11
M  V30 11 1 9 12
M  V30 12 2 10 13
M  V30 13 1 10 14
M  V30 14 1 11 15
M  V30 15 1 11 16
M  V30 16 1 13 17
M  V30 17 2 14 18
M  V30 18 2 15 19
M  V30 19 1 16 20
M  V30 20 2 17 21
M  V30 21 1 20 22
M  V30 22 1 20 23
M  V30 23 1 20 24
M  V30 24 1 6 8
M  V30 25 1 12 15
M  V30 26 1 18 21
M  V30 END BOND
M  V30 END CTAB
M  END
>  <Molecule Name>


>  <status>
DISCONTINUED

>  <cas>
23092-17-3

>  <name>
HALAZEPAM

>  <ID>
451

>  <Smiles>
O=C1N(CC(F)(F)F)c(ccc(Cl)c2)c2C(c2ccccc2)=NC1

$$$$

Actelion Java MolfileCreator 2.0

  0  0  0  0  0  0              0 V3000
M  V30 BEGIN CTAB
M  V30 COUNTS 32 35 0 0 0
M  V30 BEGIN ATOM
M  V30 1 O 6.0489 0.944 0.0 0
M  V30 2 C 5.1961 1.5 0.0 0
M  V30 3 O 5.1961 2.5 0.0 0 CHG=-1
M  V30 4 C 4.3301 1.0 0.0 0
M  V30 5 C 5.1961 0.5 0.0 0
M  V30 6 C 3.4641 1.5 0.0 0
M  V30 7 C 4.3301 0.0 0.0 0
M  V30 8 C 5.1961 -0.4999 0.0 0
M  V30 9 C 6.1839 1.1868 0.0 0
M  V30 10 C 2.598 0.9999 0.0 0
M  V30 11 C 3.4641 -0.4999 0.0 0
M  V30 12 C 6.0621 -0.9999 0.0 0
M  V30 13 C 6.9282 0.5 0.0 0
M  V30 14 N 2.598 0.0 0.0 0
M  V30 15 C 6.9282 -0.4999 0.0 0
M  V30 16 C 1.732 -0.5 0.0 0
M  V30 17 C 0.866 0.0 0.0 0
M  V30 18 C 0.0 -0.5 0.0 0
M  V30 19 C -0.866 -0.9999 0.0 0
M  V30 20 C 0.0 -1.5 0.0 0
M  V30 21 C -0.866 0.0 0.0 0
M  V30 22 N -1.732 -1.4999 0.0 0
M  V30 23 C -0.866 -1.9999 0.0 0
M  V30 24 C 0.866 -2.0 0.0 0
M  V30 25 C -0.866 1.0 0.0 0
M  V30 26 C -1.732 -0.4999 0.0 0
M  V30 27 C -0.866 -2.9999 0.0 0
M  V30 28 C 0.866 -3.0 0.0 0
M  V30 29 C -1.732 1.5 0.0 0
M  V30 30 C -2.598 0.0 0.0 0
M  V30 31 C 0.0 -3.4999 0.0 0
M  V30 32 C -2.598 1.0 0.0 0
M  V30 END ATOM
M  V30 BEGIN BOND
M  V30 1 2 1 2
M  V30 2 1 2 3
M  V30 3 1 2 4
M  V30 4 1 4 5
M  V30 5 1 4 6
M  V30 6 1 4 7
M  V30 7 2 5 8
M  V30 8 1 5 9
M  V30 9 1 6 10
M  V30 10 1 7 11
M  V30 11 1 8 12
M  V30 12 2 9 13
M  V30 13 1 10 14
M  V30 14 2 12 15
M  V30 15 1 14 16
M  V30 16 1 16 17
M  V30 17 1 17 18
M  V30 18 1 18 19
M  V30 19 1 18 20
M  V30 20 1 18 21
M  V30 21 3 19 22
M  V30 22 2 20 23
M  V30 23 1 20 24
M  V30 24 2 21 25
M  V30 25 1 21 26
M  V30 26 1 23 27
M  V30 27 2 24 28
M  V30 28 1 25 29
M  V30 29 2 26 30
M  V30 30 2 27 31
M  V30 31 2 29 32
M  V30 32 1 11 14
M  V30 33 1 13 15
M  V30 34 1 28 31
M  V30 35 1 30 32
M  V30 END BOND
M  V30 END CTAB
M  END
>  <Molecule Name>


>  <status>
-

>  <cas>
28782-42-5

>  <name>
DIFENOXIN

>  <ID>
452

>  <Smiles>
N#CC(CCN(CC1)CCC1(C([O-])=O)c1ccccc1)(c1ccccc1)c1ccccc1

$$$$

Actelion Java MolfileCreator 2.0

  0  0  0  0  0  0              0 V3000
M  V30 BEGIN CTAB
M  V30 COUNTS 31 33 0 0 0
M  V30 BEGIN ATOM
M  V30 1 S 5.1961 -0.75 0.0 0
M  V30 2 O 4.4461 -2.049 0.0 0
M  V30 3 O 5.9461 -2.049 0.0 0
M  V30 4 N 3.8971 0.0 0.0 0
M  V30 5 C 6.4951 0.0 0.0 0
M  V30 6 C 2.598 -0.75 0.0 0
M  V30 7 C 7.7942 -0.75 0.0 0
M  V30 8 C 6.4951 1.5 0.0 0
M  V30 9 O 2.598 -2.25 0.0 0
M  V30 10 N 1.299 0.0 0.0 0
M  V30 11 C 9.0932 0.0 0.0 0
M  V30 12 C 7.7942 2.25 0.0 0
M  V30 13 C 0.0 -0.75 0.0 0
M  V30 14 C 9.0932 1.5 0.0 0
M  V30 15 C -1.299 0.0 0.0 0
M  V30 16 C 0.0 -2.25 0.0 0
M  V30 17 C 10.3923 2.25 0.0 0
M  V30 18 C -2.598 -0.75 0.0 0
M  V30 19 C -1.299 -3.0 0.0 0
M  V30 20 C 11.6913 1.5 0.0 0
M  V30 21 C -2.598 -2.25 0.0 0
M  V30 22 N 12.9903 2.25 0.0 0
M  V30 23 C 14.2894 1.5 0.0 0
M  V30 24 O 14.2894 0.0 0.0 0
M  V30 25 C 15.5884 2.25 0.0 0
M  V30 26 N 16.8875 1.5 0.0 0
M  V30 27 C 15.5884 3.75 0.0 0
M  V30 28 C 18.1865 2.25 0.0 0
M  V30 29 N 16.8875 4.5 0.0 0
M  V30 30 C 18.1865 3.75 0.0 0
M  V30 31 C 19.4855 4.5 0.0 0
M  V30 END ATOM
M  V30 BEGIN BOND
M  V30 1 2 1 2
M  V30 2 2 1 3
M  V30 3 1 1 4
M  V30 4 1 1 5
M  V30 5 1 4 6
M  V30 6 2 5 7
M  V30 7 1 5 8
M  V30 8 2 6 9
M  V30 9 1 6 10
M  V30 10 1 7 11
M  V30 11 2 8 12
M  V30 12 1 10 13
M  V30 13 2 11 14
M  V30 14 1 13 15
M  V30 15 1 13 16
M  V30 16 1 14 17
M  V30 17 1 15 18
M  V30 18 1 16 19
M  V30 19 1 17 20
M  V30 20 1 18 21
M  V30 21 1 20 22
M  V30 22 1 22 23
M  V30 23 2 23 24
M  V30 24 1 23 25
M  V30 25 2 25 26
M  V30 26 1 25 27
M  V30 27 1 26 28
M  V30 28 2 27 29
M  V30 29 2 28 30
M  V30 30 1 30 31
M  V30 31 1 12 14
M  V30 32 1 19 21
M  V30 33 1 29 30
M  V30 END BOND
M  V30 END CTAB
M  END
>  <Molecule Name>


>  <status>
-

>  <cas>
29094-61-9

>  <name>
GLIPIZIDE

>  <ID>
453

>  <Smiles>
Cc(nc1)cnc1C(NCCc(cc1)ccc1S(NC(NC1CCCCC1)=O)(=O)=O)=O

$$$$

Actelion Java MolfileCreator 2.0

  0  0  0  0  0  0              0 V3000
M  V30 BEGIN CTAB
M  V30 COUNTS 75 78 0 0 0
M  V30 BEGIN ATOM
M  V30 1 S 13.5418 -3.5609 0.0 0
M  V30 2 S 12.1018 -4.0288 0.0 0
M  V30 3 C 13.8567 -2.0798 0.0 0
M  V30 4 C 11.7869 -5.5099 0.0 0
M  V30 5 C 12.7314 -1.0666 0.0 0 CFG=2
M  V30 6 C 10.5166 -5.8715 0.0 0 CFG=2
M  V30 7 N 13.0462 0.4144 0.0 0
M  V30 8 C 11.3366 -1.5434 0.0 0
M  V30 9 N 10.2165 -7.4722 0.0 0
M  V30 10 C 9.2216 -4.9646 0.0 0
M  V30 11 O 11.091 -3.2921 0.0 0
M  V30 12 N 10.1661 -0.5213 0.0 0
M  V30 13 C 8.5567 -8.0553 0.0 0
M  V30 14 O 8.0664 -5.1832 0.0 0
M  V30 15 N 9.7217 -3.4288 0.0 0
M  V30 16 C 8.6747 -0.964 0.0 0 CFG=2
M  V30 17 O 7.8053 -6.9136 0.0 0
M  V30 18 C 8.0875 -9.2605 0.0 0 CFG=1
M  V30 19 C 8.6804 -2.2909 0.0 0 CFG=2
M  V30 20 C 10.652 -2.8371 0.0 0
M  V30 21 C 8.2815 -2.7204 0.0 0
M  V30 22 C 7.6007 0.0239 0.0 0
M  V30 23 N 6.9214 -9.6948 0.0 0
M  V30 24 C 9.4024 -10.4211 0.0 0
M  V30 25 C 7.001 -2.4258 0.0 0
M  V30 26 C 9.3739 -1.138 0.0 0
M  V30 27 C 10.6389 -1.4069 0.0 0
M  V30 28 O 9.1809 -3.5885 0.0 0
M  V30 29 N 7.0468 -3.0957 0.0 0
M  V30 30 C 7.9156 1.5049 0.0 0
M  V30 31 C 5.5207 -8.8058 0.0 0
M  V30 32 C 9.0876 -11.9022 0.0 0
M  V30 33 O 6.3101 -3.8325 0.0 0
M  V30 34 N 6.1274 -1.2915 0.0 0
M  V30 35 C 6.6756 -4.452 0.0 0 CFG=2
M  V30 36 C 6.7903 2.5181 0.0 0
M  V30 37 C 9.3556 1.9729 0.0 0
M  V30 38 O 4.2718 -9.3305 0.0 0
M  V30 39 C 5.9111 -7.2237 0.0 0 CFG=1
M  V30 40 O 7.6475 -12.3701 0.0 0
M  V30 41 N 10.2129 -12.9153 0.0 0
M  V30 42 C 4.6215 -1.4498 0.0 0 CFG=2
M  V30 43 C 5.2162 -4.8872 0.0 0
M  V30 44 C 7.6391 -5.5571 0.0 0
M  V30 45 C 7.1051 3.9992 0.0 0
M  V30 46 C 9.6704 3.454 0.0 0
M  V30 47 N 4.9014 -6.3683 0.0 0
M  V30 48 C 7.4144 -6.6297 0.0 0
M  V30 49 C 4.0056 -2.8331 0.0 0
M  V30 50 C 3.7315 -0.2248 0.0 0
M  V30 51 O 4.0492 -3.9126 0.0 0
M  V30 52 C 7.3468 -7.0443 0.0 0
M  V30 53 C 8.5452 4.4671 0.0 0
M  V30 54 C 8.2791 -7.9057 0.0 0
M  V30 55 O 5.0145 -3.926 0.0 0
M  V30 56 N 2.4997 -2.9914 0.0 0
M  V30 57 C 4.3473 1.1584 0.0 0
M  V30 58 C 8.7813 -7.9268 0.0 0
M  V30 59 C 6.2428 -7.6767 0.0 0
M  V30 60 O 8.86 5.9482 0.0 0
M  V30 61 C 9.8426 -7.2814 0.0 0
M  V30 62 C 1.8838 -4.3746 0.0 0
M  V30 63 C 3.4573 2.3834 0.0 0
M  V30 64 C 8.549 -9.4315 0.0 0
M  V30 65 C 6.0399 -9.014 0.0 0
M  V30 66 O 10.0447 -6.167 0.0 0
M  V30 67 N 11.1573 -8.4721 0.0 0
M  V30 68 C 0.3779 -4.5329 0.0 0
M  V30 69 N 1.9514 2.2251 0.0 0
M  V30 70 C 6.9568 -10.2349 0.0 0
M  V30 71 O -0.2378 -5.9162 0.0 0
M  V30 72 N -0.512 -3.3079 0.0 0
M  V30 73 C 1.0614 3.4501 0.0 0
M  V30 74 N 1.6773 4.8334 0.0 0
M  V30 75 N -0.4444 3.2918 0.0 0
M  V30 END ATOM
M  V30 BEGIN BOND
M  V30 1 1 1 2
M  V30 2 1 1 3
M  V30 3 1 2 4
M  V30 4 1 5 3
M  V30 5 1 6 4
M  V30 6 1 5 7 CFG=1
M  V30 7 1 5 8
M  V30 8 1 6 9
M  V30 9 1 6 10 CFG=3
M  V30 10 2 8 11
M  V30 11 1 8 12
M  V30 12 1 9 13
M  V30 13 2 10 14
M  V30 14 1 10 15
M  V30 15 1 16 12
M  V30 16 2 13 17
M  V30 17 1 18 13
M  V30 18 1 19 15
M  V30 19 1 15 20
M  V30 20 1 16 21
M  V30 21 1 16 22 CFG=3
M  V30 22 1 18 23
M  V30 23 1 18 24 CFG=3
M  V30 24 1 19 25 CFG=3
M  V30 25 1 19 26
M  V30 26 1 20 27
M  V30 27 2 21 28
M  V30 28 1 21 29
M  V30 29 1 22 30
M  V30 30 1 23 31
M  V30 31 1 24 32
M  V30 32 2 25 33
M  V30 33 1 25 34
M  V30 34 1 35 29
M  V30 35 2 30 36
M  V30 36 1 30 37
M  V30 37 2 31 38
M  V30 38 1 39 31
M  V30 39 2 32 40
M  V30 40 1 32 41
M  V30 41 1 42 34 CFG=3
M  V30 42 1 35 43
M  V30 43 1 35 44 CFG=1
M  V30 44 1 36 45
M  V30 45 2 37 46
M  V30 46 1 39 47
M  V30 47 1 39 48 CFG=1
M  V30 48 1 42 49
M  V30 49 1 42 50
M  V30 50 2 43 51
M  V30 51 1 44 52
M  V30 52 2 45 53
M  V30 53 1 48 54
M  V30 54 2 49 55
M  V30 55 1 49 56
M  V30 56 1 50 57
M  V30 57 2 52 58
M  V30 58 1 52 59
M  V30 59 1 53 60
M  V30 60 1 54 61
M  V30 61 1 56 62
M  V30 62 1 57 63
M  V30 63 1 58 64
M  V30 64 2 59 65
M  V30 65 2 61 66
M  V30 66 1 61 67
M  V30 67 1 62 68
M  V30 68 1 63 69
M  V30 69 2 64 70
M  V30 70 2 68 71
M  V30 71 1 68 72
M  V30 72 2 69 73
M  V30 73 1 73 74
M  V30 74 1 73 75
M  V30 75 1 26 27
M  V30 76 1 43 47
M  V30 77 1 46 53
M  V30 78 1 65 70
M  V30 END BOND
M  V30 BEGIN COLLECTION
M  V30 MDLV30/STERAC1 ATOMS=(8 5 6 16 18 19 35 39 42)
M  V30 END COLLECTION
M  V30 END CTAB
M  END
>  <Molecule Name>


>  <status>
-

>  <cas>
11000-17-2

>  <name>
VASOPRESSIN

>  <ID>
454

>  <Smiles>
N[C@@H](CSSC[C@@H](C(N(CCC1)[C@@H]1C(N[C@@H](CCCN=C(N)N)C(NCC(N)=O)=O)=O)=O)NC([C@H](CC(N)=O)NC([C@H](CCC(N)=O)NC([C@H](Cc1ccccc1)NC([C@H](Cc(cc1)ccc1O)N1)=O)=O)=O)=O)C1=O

$$$$

Actelion Java MolfileCreator 2.0

  0  0  0  0  0  0              0 V3000
M  V30 BEGIN CTAB
M  V30 COUNTS 21 23 0 0 0
M  V30 BEGIN ATOM
M  V30 1 Cl 0.866 0.0 0.0 0
M  V30 2 C 0.0 -0.5 0.0 0
M  V30 3 C -0.866 0.0 0.0 0
M  V30 4 C 0.0 -1.4999 0.0 0
M  V30 5 C -0.866 1.0 0.0 0
M  V30 6 C -1.732 -0.4999 0.0 0
M  V30 7 C -0.866 -1.9999 0.0 0
M  V30 8 N 0.0349 1.4338 0.0 0
M  V30 9 C -1.7669 1.4338 0.0 0
M  V30 10 C -1.732 -1.4999 0.0 0
M  V30 11 C 0.2574 2.4088 0.0 0 CFG=1
M  V30 12 C -1.9895 2.4088 0.0 0
M  V30 13 C -2.5 0.7537 0.0 0
M  V30 14 O 1.2323 2.6313 0.0 0
M  V30 15 C -0.366 3.1906 0.0 0
M  V30 16 N -1.366 3.1906 0.0 0
M  V30 17 C -2.945 2.7035 0.0 0
M  V30 18 C -3.4556 1.0484 0.0 0
M  V30 19 O 0.0678 4.0916 0.0 0
M  V30 20 C -3.6781 2.0233 0.0 0
M  V30 21 Cl -4.1886 0.3682 0.0 0
M  V30 END ATOM
M  V30 BEGIN BOND
M  V30 1 1 1 2
M  V30 2 2 2 3
M  V30 3 1 2 4
M  V30 4 1 3 5
M  V30 5 1 3 6
M  V30 6 2 4 7
M  V30 7 2 5 8
M  V30 8 1 5 9
M  V30 9 2 6 10
M  V30 10 1 11 8
M  V30 11 2 9 12
M  V30 12 1 9 13
M  V30 13 1 11 14 CFG=3
M  V30 14 1 11 15
M  V30 15 1 12 16
M  V30 16 1 12 17
M  V30 17 2 13 18
M  V30 18 2 15 19
M  V30 19 2 17 20
M  V30 20 1 18 21
M  V30 21 1 7 10
M  V30 22 1 15 16
M  V30 23 1 18 20
M  V30 END BOND
M  V30 BEGIN COLLECTION
M  V30 MDLV30/STERAC1 ATOMS=(1 11)
M  V30 END COLLECTION
M  V30 END CTAB
M  END
>  <Molecule Name>


>  <status>
-

>  <cas>
846-49-1

>  <name>
LORAZEPAM

>  <ID>
455

>  <Smiles>
OC1N=C(c(cccc2)c2Cl)c(cc(cc2)Cl)c2NC1=O

$$$$

Actelion Java MolfileCreator 2.0

  0  0  0  0  0  0              0 V3000
M  V30 BEGIN CTAB
M  V30 COUNTS 25 25 0 0 0
M  V30 BEGIN ATOM
M  V30 1 O 8.0496 0.8848 0.0 0
M  V30 2 C 7.8417 -0.0932 0.0 0
M  V30 3 C 6.9282 -0.5 0.0 0 CFG=2
M  V30 4 C 8.5108 -0.8364 0.0 0
M  V30 5 C 7.0327 -1.4945 0.0 0 CFG=1
M  V30 6 C 6.0621 0.0 0.0 0
M  V30 7 C 8.0108 -1.7024 0.0 0 CFG=1
M  V30 8 C 6.2895 -2.1636 0.0 0
M  V30 9 C 5.1961 -0.5 0.0 0
M  V30 10 O 8.4176 -2.6159 0.0 0
M  V30 11 C 6.4974 -3.1418 0.0 0
M  V30 12 C 4.3301 0.0 0.0 0
M  V30 13 C 5.7543 -3.8109 0.0 0 CFG=2
M  V30 14 C 4.3301 1.0 0.0 0
M  V30 15 O 4.8032 -3.5019 0.0 0
M  V30 16 C 5.9622 -4.789 0.0 0
M  V30 17 C 3.4641 1.5 0.0 0
M  V30 18 C 5.2191 -5.4582 0.0 0
M  V30 19 C 3.4641 2.5 0.0 0
M  V30 20 C 5.427 -6.4363 0.0 0
M  V30 21 C 2.598 3.0 0.0 0
M  V30 22 C 4.6838 -7.1054 0.0 0
M  V30 23 O 1.732 2.5 0.0 0
M  V30 24 O 2.598 4.0 0.0 0 CHG=-1
M  V30 25 C 4.8917 -8.0836 0.0 0
M  V30 END ATOM
M  V30 BEGIN BOND
M  V30 1 2 1 2
M  V30 2 1 3 2
M  V30 3 1 2 4
M  V30 4 1 5 3
M  V30 5 1 3 6 CFG=3
M  V30 6 1 7 4
M  V30 7 1 5 8 CFG=1
M  V30 8 1 6 9
M  V30 9 1 7 10 CFG=3
M  V30 10 2 8 11
M  V30 11 2 9 12
M  V30 12 1 13 11
M  V30 13 1 12 14
M  V30 14 1 13 15 CFG=1
M  V30 15 1 13 16
M  V30 16 1 14 17
M  V30 17 1 16 18
M  V30 18 1 17 19
M  V30 19 1 18 20
M  V30 20 1 19 21
M  V30 21 1 20 22
M  V30 22 2 21 23
M  V30 23 1 21 24
M  V30 24 1 22 25
M  V30 25 1 5 7
M  V30 END BOND
M  V30 BEGIN COLLECTION
M  V30 MDLV30/STERAC1 ATOMS=(4 3 5 7 13)
M  V30 END COLLECTION
M  V30 END CTAB
M  END
>  <Molecule Name>


>  <status>
-

>  <cas>
363-24-6

>  <name>
DINOPROSTONE

>  <ID>
456

>  <Smiles>
CCCCC[C@H](/C=C/[C@@H]([C@H](C/C=C\CCCC([O-])=O)C(C1)=O)[C@H]1O)O

$$$$
_c001
Actelion Java MolfileCreator 2.0

  0  0  0  0  0  0              0 V3000
M  V30 BEGIN CTAB
M  V30 COUNTS 22 23 0 0 0
M  V30 BEGIN ATOM
M  V30 1 O 12.9903 -0.75 0.0 0
M  V30 2 C 11.6913 0.0 0.0 0
M  V30 3 C 11.6913 1.4999 0.0 0
M  V30 4 C 10.3923 -0.75 0.0 0
M  V30 5 O 12.9903 2.2499 0.0 0
M  V30 6 C 10.3923 2.2499 0.0 0
M  V30 7 C 9.0932 0.0 0.0 0
M  V30 8 C 9.0932 1.5 0.0 0
M  V30 9 C 7.7942 -0.75 0.0 0
M  V30 10 C 6.4951 0.0 0.0 0
M  V30 11 N 5.1961 -0.75 0.0 0
M  V30 12 C 3.8971 0.0 0.0 0 CFG=2
M  V30 13 C 2.598 -0.75 0.0 0
M  V30 14 C 3.8971 1.5 0.0 0
M  V30 15 C 1.299 0.0 0.0 0
M  V30 16 C 0.0 -0.75 0.0 0
M  V30 17 C -1.299 0.0 0.0 0
M  V30 18 C 0.0 -2.2499 0.0 0
M  V30 19 C -2.598 -0.7499 0.0 0
M  V30 20 C -1.299 -2.9999 0.0 0
M  V30 21 C -2.598 -2.2499 0.0 0
M  V30 22 O -3.8971 -2.9999 0.0 0
M  V30 END ATOM
M  V30 BEGIN BOND
M  V30 1 1 1 2
M  V30 2 2 2 3
M  V30 3 1 2 4
M  V30 4 1 3 5
M  V30 5 1 3 6
M  V30 6 2 4 7
M  V30 7 2 6 8
M  V30 8 1 7 9
M  V30 9 1 9 10
M  V30 10 1 10 11
M  V30 11 1 12 11 CFG=3
M  V30 12 1 12 13
M  V30 13 1 12 14
M  V30 14 1 13 15
M  V30 15 1 15 16
M  V30 16 2 16 17
M  V30 17 1 16 18
M  V30 18 1 17 19
M  V30 19 2 18 20
M  V30 20 2 19 21
M  V30 21 1 21 22
M  V30 22 1 7 8
M  V30 23 1 20 21
M  V30 END BOND
M  V30 BEGIN COLLECTION
M  V30 MDLV30/STERAC1 ATOMS=(1 12)
M  V30 END COLLECTION
M  V30 END CTAB
M  END
>  <Molecule Name>
_c001

>  <status>
-

>  <cas>
34368-04-2

>  <name>
DOBUTAMINE

>  <ID>
457

>  <Smiles>
CC(CCc(cc1)ccc1O)NCCc(cc1)cc(O)c1O

$$$$

Actelion Java MolfileCreator 2.0

  0  0  0  0  0  0              0 V3000
M  V30 BEGIN CTAB
M  V30 COUNTS 21 23 0 0 0
M  V30 BEGIN ATOM
M  V30 1 N 5.1961 -0.75 0.0 0
M  V30 2 C 3.8971 0.0 0.0 0
M  V30 3 C 6.4951 0.0 0.0 0
M  V30 4 C 5.1961 -2.25 0.0 0
M  V30 5 C 2.598 -0.75 0.0 0
M  V30 6 C 1.299 0.0 0.0 0
M  V30 7 C 0.0 -0.75 0.0 0
M  V30 8 C 0.112 -2.2458 0.0 0
M  V30 9 C -1.2393 0.0949 0.0 0
M  V30 10 C -0.9874 -3.266 0.0 0
M  V30 11 C 1.5454 -2.6879 0.0 0
M  V30 12 C -2.6727 -0.3471 0.0 0
M  V30 13 C -0.9055 1.5573 0.0 0
M  V30 14 C -2.4707 -3.0425 0.0 0
M  V30 15 C -0.6537 -4.7284 0.0 0
M  V30 16 C 1.8792 -4.1503 0.0 0
M  V30 17 C -3.2207 -1.7434 0.0 0
M  V30 18 C -3.7722 0.6731 0.0 0
M  V30 19 C -2.0051 2.5776 0.0 0
M  V30 20 C 0.7796 -5.1705 0.0 0
M  V30 21 C -3.4385 2.1354 0.0 0
M  V30 END ATOM
M  V30 BEGIN BOND
M  V30 1 1 1 2
M  V30 2 1 1 3
M  V30 3 1 1 4
M  V30 4 1 2 5
M  V30 5 1 5 6
M  V30 6 2 6 7
M  V30 7 1 7 8
M  V30 8 1 7 9
M  V30 9 2 8 10
M  V30 10 1 8 11
M  V30 11 2 9 12
M  V30 12 1 9 13
M  V30 13 1 10 14
M  V30 14 1 10 15
M  V30 15 2 11 16
M  V30 16 1 12 17
M  V30 17 1 12 18
M  V30 18 2 13 19
M  V30 19 2 15 20
M  V30 20 2 18 21
M  V30 21 2 14 17
M  V30 22 1 16 20
M  V30 23 1 19 21
M  V30 END BOND
M  V30 END CTAB
M  END
>  <Molecule Name>


>  <status>
-

>  <cas>
303-53-7

>  <name>
CYCLOBENZAPRINE

>  <ID>
458

>  <Smiles>
CN(C)CCC=C1c(cccc2)c2C=Cc2c1cccc2

$$$$

Actelion Java MolfileCreator 2.0

  0  0  0  0  0  0              0 V3000
M  V30 BEGIN CTAB
M  V30 COUNTS 11 10 0 0 0
M  V30 BEGIN ATOM
M  V30 1 P 2.598 -0.75 0.0 0
M  V30 2 O 1.848 -2.049 0.0 0
M  V30 3 O 3.8971 -1.5 0.0 0 CHG=-1
M  V30 4 O 3.348 0.549 0.0 0 CHG=-1
M  V30 5 C 1.299 0.0 0.0 0
M  V30 6 P 0.0 -0.75 0.0 0
M  V30 7 O 2.049 1.299 0.0 0
M  V30 8 C 0.549 1.299 0.0 0
M  V30 9 O -0.75 0.549 0.0 0
M  V30 10 O -1.299 -1.5 0.0 0 CHG=-1
M  V30 11 O 0.75 -2.049 0.0 0 CHG=-1
M  V30 END ATOM
M  V30 BEGIN BOND
M  V30 1 2 1 2
M  V30 2 1 1 3
M  V30 3 1 1 4
M  V30 4 1 1 5
M  V30 5 1 5 6
M  V30 6 1 5 7
M  V30 7 1 5 8
M  V30 8 2 6 9
M  V30 9 1 6 10
M  V30 10 1 6 11
M  V30 END BOND
M  V30 END CTAB
M  END
>  <Molecule Name>


>  <status>
DISCONTINUED

>  <cas>
2809-21-4

>  <name>
ETIDRONATE

>  <ID>
459

>  <Smiles>
CC(O)(P([O-])([O-])=O)P([O-])([O-])=O

$$$$

Actelion Java MolfileCreator 2.0

  0  0  0  0  0  0              0 V3000
M  V30 BEGIN CTAB
M  V30 COUNTS 14 14 0 0 0
M  V30 BEGIN ATOM
M  V30 1 Cl 3.8971 6.0 0.0 0
M  V30 2 C 3.8971 4.5 0.0 0
M  V30 3 C 2.598 3.75 0.0 0
M  V30 4 C 5.1961 3.75 0.0 0
M  V30 5 C 2.598 2.25 0.0 0
M  V30 6 C 5.1961 2.25 0.0 0
M  V30 7 C 3.8971 1.5 0.0 0
M  V30 8 C 3.8971 0.0 0.0 0 CFG=2
M  V30 9 C 5.1961 -0.75 0.0 0
M  V30 10 C 2.598 -0.75 0.0 0
M  V30 11 N 6.4951 0.0 0.0 0
M  V30 12 C 1.299 0.0 0.0 0
M  V30 13 O 1.299 1.5 0.0 0
M  V30 14 O 0.0 -0.75 0.0 0 CHG=-1
M  V30 END ATOM
M  V30 BEGIN BOND
M  V30 1 1 1 2
M  V30 2 2 2 3
M  V30 3 1 2 4
M  V30 4 1 3 5
M  V30 5 2 4 6
M  V30 6 2 5 7
M  V30 7 1 8 7
M  V30 8 1 8 9 CFG=3
M  V30 9 1 8 10
M  V30 10 1 9 11
M  V30 11 1 10 12
M  V30 12 2 12 13
M  V30 13 1 12 14
M  V30 14 1 6 7
M  V30 END BOND
M  V30 BEGIN COLLECTION
M  V30 MDLV30/STERAC1 ATOMS=(1 8)
M  V30 END COLLECTION
M  V30 END CTAB
M  END
>  <Molecule Name>


>  <status>
-

>  <cas>
1134-47-0

>  <name>
BACLOFEN

>  <ID>
460

>  <Smiles>
NCC(CC([O-])=O)c(cc1)ccc1Cl

$$$$

Actelion Java MolfileCreator 2.0

  0  0  0  0  0  0              0 V3000
M  V30 BEGIN CTAB
M  V30 COUNTS 20 20 0 0 0
M  V30 BEGIN ATOM
M  V30 1 Cl 8.6602 -0.5 0.0 0
M  V30 2 C 7.7942 0.0 0.0 0
M  V30 3 C 7.7942 0.9999 0.0 0
M  V30 4 C 6.9282 -0.5 0.0 0
M  V30 5 N 8.6602 1.4999 0.0 0
M  V30 6 C 6.9282 1.4999 0.0 0
M  V30 7 C 6.0621 0.0 0.0 0
M  V30 8 C 6.0621 1.0 0.0 0
M  V30 9 C 5.1961 -0.5 0.0 0
M  V30 10 O 5.1961 1.5 0.0 0
M  V30 11 O 5.1961 -1.4999 0.0 0
M  V30 12 N 4.3301 0.0 0.0 0
M  V30 13 C 4.3301 1.0 0.0 0
M  V30 14 C 3.4641 -0.5 0.0 0
M  V30 15 C 2.598 0.0 0.0 0
M  V30 16 N 1.732 -0.5 0.0 0
M  V30 17 C 1.732 -1.5 0.0 0
M  V30 18 C 0.866 0.0 0.0 0
M  V30 19 C 2.598 -1.9999 0.0 0
M  V30 20 C 0.0 -0.5 0.0 0
M  V30 END ATOM
M  V30 BEGIN BOND
M  V30 1 1 1 2
M  V30 2 2 2 3
M  V30 3 1 2 4
M  V30 4 1 3 5
M  V30 5 1 3 6
M  V30 6 2 4 7
M  V30 7 2 6 8
M  V30 8 1 7 9
M  V30 9 1 8 10
M  V30 10 2 9 11
M  V30 11 1 9 12
M  V30 12 1 10 13
M  V30 13 1 12 14
M  V30 14 1 14 15
M  V30 15 1 15 16
M  V30 16 1 16 17
M  V30 17 1 16 18
M  V30 18 1 17 19
M  V30 19 1 18 20
M  V30 20 1 7 8
M  V30 END BOND
M  V30 END CTAB
M  END
>  <Molecule Name>


>  <status>
-

>  <cas>
364-62-5

>  <name>
METOCLOPRAMIDE

>  <ID>
461

>  <Smiles>
CCN(CC)CCNC(c(c(OC)c1)cc(Cl)c1N)=O

$$$$

Actelion Java MolfileCreator 2.0

  0  0  0  0  0  0              0 V3000
M  V30 BEGIN CTAB
M  V30 COUNTS 27 30 0 0 0
M  V30 BEGIN ATOM
M  V30 1 F 2.6897 3.4138 0.0 0
M  V30 2 C 3.3206 2.8966 0.0 0 CFG=2
M  V30 3 C 3.6296 3.8476 0.0 0 CFG=2
M  V30 4 C 2.3424 2.6887 0.0 0 CFG=1
M  V30 5 C 3.9897 2.1534 0.0 0 CFG=2
M  V30 6 C 4.6078 4.0556 0.0 0
M  V30 7 C 2.9605 4.5908 0.0 0
M  V30 8 C 2.4015 3.6397 0.0 0
M  V30 9 O 1.6733 3.4318 0.0 0
M  V30 10 C 2.0334 1.7376 0.0 0
M  V30 11 C 3.6807 1.2024 0.0 0 CFG=1
M  V30 12 C 4.9679 2.3614 0.0 0
M  V30 13 C 4.9168 5.0066 0.0 0
M  V30 14 C 5.2769 3.3124 0.0 0
M  V30 15 C 3.2695 5.5418 0.0 0
M  V30 16 C 2.7026 0.9945 0.0 0 CFG=1
M  V30 17 C 4.1807 0.3364 0.0 0
M  V30 18 C 4.2476 5.7498 0.0 0
M  V30 19 C 2.598 0.0 0.0 0 CFG=2
M  V30 20 C 1.7515 0.6855 0.0 0
M  V30 21 C 3.5116 -0.4067 0.0 0 CFG=2
M  V30 22 O 4.5567 6.7008 0.0 0
M  V30 23 C 1.732 -0.5 0.0 0
M  V30 24 C 3.7195 -1.3848 0.0 0
M  V30 25 O 1.732 -1.5 0.0 0
M  V30 26 C 0.866 0.0 0.0 0
M  V30 27 O 0.0 -0.5 0.0 0
M  V30 END ATOM
M  V30 BEGIN BOND
M  V30 1 1 2 1 CFG=1
M  V30 2 1 3 2
M  V30 3 1 4 2
M  V30 4 1 5 2
M  V30 5 1 3 6
M  V30 6 1 3 7
M  V30 7 1 3 8 CFG=3
M  V30 8 1 4 9 CFG=3
M  V30 9 1 4 10
M  V30 10 1 11 5
M  V30 11 1 5 12 CFG=1
M  V30 12 2 6 13
M  V30 13 1 6 14
M  V30 14 2 7 15
M  V30 15 1 16 10
M  V30 16 1 11 17 CFG=3
M  V30 17 1 13 18
M  V30 18 1 19 16
M  V30 19 1 16 20 CFG=3
M  V30 20 1 21 17
M  V30 21 2 18 22
M  V30 22 1 19 23 CFG=3
M  V30 23 1 21 24 CFG=1
M  V30 24 2 23 25
M  V30 25 1 23 26
M  V30 26 1 26 27
M  V30 27 1 11 16
M  V30 28 1 12 14
M  V30 29 1 15 18
M  V30 30 1 19 21
M  V30 END BOND
M  V30 BEGIN COLLECTION
M  V30 MDLV30/STERAC1 ATOMS=(8 2 3 4 5 11 16 19 21)
M  V30 END COLLECTION
M  V30 END CTAB
M  END
>  <Molecule Name>


>  <status>
-

>  <cas>
382-67-2

>  <name>
DESOXIMETASONE

>  <ID>
462

>  <Smiles>
C[C@H](C[C@@H]([C@H](CCC([C@]1(C)C=C2)=CC2=O)[C@@]11F)[C@]2(C)C[C@@H]1O)[C@@H]2C(CO)=O

$$$$

Actelion Java MolfileCreator 2.0

  0  0  0  0  0  0              0 V3000
M  V30 BEGIN CTAB
M  V30 COUNTS 24 28 0 0 0
M  V30 BEGIN ATOM
M  V30 1 O 5.1961 -4.8333 0.0 0
M  V30 2 C 4.3301 -4.3333 0.0 0
M  V30 3 C 4.3301 -3.3333 0.0 0
M  V30 4 C 3.4641 -4.8333 0.0 0
M  V30 5 C 3.4641 -2.8333 0.0 0
M  V30 6 C 2.598 -4.3333 0.0 0
M  V30 7 C 2.598 -3.3333 0.0 0
M  V30 8 C 3.4641 -1.8333 0.0 0 CFG=2
M  V30 9 C 1.732 -2.8333 0.0 0
M  V30 10 C 2.598 -1.3333 0.0 0 CFG=2
M  V30 11 C 3.4641 -0.4999 0.0 0
M  V30 12 C 4.3301 -1.3333 0.0 0
M  V30 13 C 1.732 -1.8333 0.0 0 CFG=1
M  V30 14 O 1.732 -0.8333 0.0 0
M  V30 15 C 2.5957 -0.396 0.0 0
M  V30 16 C 2.5716 0.0874 0.0 0
M  V30 17 C 4.3301 -0.3333 0.0 0
M  V30 18 N 1.732 -0.4166 0.0 0
M  V30 19 C 3.4641 0.1666 0.0 0
M  V30 20 C 0.866 0.0 0.0 0
M  V30 21 C 0.0 -0.5 0.0 0
M  V30 22 C -0.9659 -0.2411 0.0 0
M  V30 23 C -0.2588 -1.4659 0.0 0
M  V30 24 C -1.2247 -1.2071 0.0 0
M  V30 END ATOM
M  V30 BEGIN BOND
M  V30 1 1 1 2
M  V30 2 2 2 3
M  V30 3 1 2 4
M  V30 4 1 3 5
M  V30 5 2 4 6
M  V30 6 2 5 7
M  V30 7 1 8 5
M  V30 8 1 7 9
M  V30 9 1 10 8
M  V30 10 1 8 11 CFG=3
M  V30 11 1 8 12
M  V30 12 1 13 9
M  V30 13 1 10 14 CFG=3
M  V30 14 1 10 15
M  V30 15 1 11 16
M  V30 16 1 12 17
M  V30 17 1 13 18 CFG=3
M  V30 18 1 15 19
M  V30 19 1 18 20
M  V30 20 1 20 21
M  V30 21 1 21 22
M  V30 22 1 21 23
M  V30 23 1 22 24
M  V30 24 1 6 7
M  V30 25 1 10 13
M  V30 26 1 16 18
M  V30 27 1 17 19
M  V30 28 1 23 24
M  V30 END BOND
M  V30 BEGIN COLLECTION
M  V30 MDLV30/STERAC1 ATOMS=(3 8 10 13)
M  V30 END COLLECTION
M  V30 END CTAB
M  END
>  <Molecule Name>


>  <status>
-

>  <cas>
42408-82-2

>  <name>
BUTORPHANOL

>  <ID>
463

>  <Smiles>
O[C@@](CCCC1)([C@H](C2)N(CC3CCC3)CC3)[C@@]13c1c2ccc(O)c1

$$$$

Actelion Java MolfileCreator 2.0

  0  0  0  0  0  0              0 V3000
M  V30 BEGIN CTAB
M  V30 COUNTS 19 19 0 0 0
M  V30 BEGIN ATOM
M  V30 1 O 5.1961 -0.5 0.0 0
M  V30 2 C 6.0621 0.0 0.0 0
M  V30 3 C 4.3301 0.0 0.0 0
M  V30 4 C 6.9282 -0.5 0.0 0
M  V30 5 C 6.0621 0.9999 0.0 0
M  V30 6 C 3.4641 -0.5 0.0 0 CFG=1
M  V30 7 C 7.7942 0.0 0.0 0
M  V30 8 C 6.9282 1.4999 0.0 0
M  V30 9 O 3.4641 -1.5 0.0 0
M  V30 10 C 2.598 0.0 0.0 0
M  V30 11 C 7.7942 0.9999 0.0 0
M  V30 12 N 1.732 -0.5 0.0 0
M  V30 13 C 8.6602 1.4999 0.0 0
M  V30 14 C 0.866 0.0 0.0 0
M  V30 15 C 8.6602 2.4999 0.0 0
M  V30 16 C 0.866 1.0 0.0 0
M  V30 17 C 0.0 -0.5 0.0 0
M  V30 18 O 9.5262 2.9999 0.0 0
M  V30 19 C 9.5262 3.9999 0.0 0
M  V30 END ATOM
M  V30 BEGIN BOND
M  V30 1 1 1 2
M  V30 2 1 1 3
M  V30 3 2 2 4
M  V30 4 1 2 5
M  V30 5 1 6 3
M  V30 6 1 4 7
M  V30 7 2 5 8
M  V30 8 1 6 9 CFG=1
M  V30 9 1 6 10
M  V30 10 2 7 11
M  V30 11 1 10 12
M  V30 12 1 11 13
M  V30 13 1 12 14
M  V30 14 1 13 15
M  V30 15 1 14 16
M  V30 16 1 14 17
M  V30 17 1 15 18
M  V30 18 1 18 19
M  V30 19 1 8 11
M  V30 END BOND
M  V30 BEGIN COLLECTION
M  V30 MDLV30/STERAC1 ATOMS=(1 6)
M  V30 END COLLECTION
M  V30 END CTAB
M  END
>  <Molecule Name>


>  <status>
-

>  <cas>
37350-58-6

>  <name>
METOPROLOL

>  <ID>
464

>  <Smiles>
CC(C)NCC(COc1ccc(CCOC)cc1)O

$$$$

Actelion Java MolfileCreator 2.0

  0  0  0  0  0  0              0 V3000
M  V30 BEGIN CTAB
M  V30 COUNTS 14 14 0 0 0
M  V30 BEGIN ATOM
M  V30 1 O 5.1961 -0.75 0.0 0
M  V30 2 C 3.8971 0.0 0.0 0
M  V30 3 O 3.8971 1.5 0.0 0 CHG=-1
M  V30 4 C 2.598 -0.75 0.0 0 CFG=1
M  V30 5 N 1.848 -2.049 0.0 0
M  V30 6 C 1.299 0.0 0.0 0
M  V30 7 C 3.348 -2.049 0.0 0
M  V30 8 C 0.0 -0.75 0.0 0
M  V30 9 C -1.299 0.0 0.0 0
M  V30 10 C 0.0 -2.25 0.0 0
M  V30 11 C -2.598 -0.75 0.0 0
M  V30 12 C -1.299 -3.0 0.0 0
M  V30 13 C -2.598 -2.25 0.0 0
M  V30 14 O -3.8971 -3.0 0.0 0
M  V30 END ATOM
M  V30 BEGIN BOND
M  V30 1 2 1 2
M  V30 2 1 2 3
M  V30 3 1 4 2
M  V30 4 1 4 5 CFG=1
M  V30 5 1 4 6
M  V30 6 1 4 7
M  V30 7 1 6 8
M  V30 8 2 8 9
M  V30 9 1 8 10
M  V30 10 1 9 11
M  V30 11 2 10 12
M  V30 12 2 11 13
M  V30 13 1 13 14
M  V30 14 1 12 13
M  V30 END BOND
M  V30 BEGIN COLLECTION
M  V30 MDLV30/STERAC1 ATOMS=(1 4)
M  V30 END COLLECTION
M  V30 END CTAB
M  END
>  <Molecule Name>


>  <status>
-

>  <cas>
672-87-7

>  <name>
METYROSINE

>  <ID>
465

>  <Smiles>
CC(Cc(cc1)ccc1O)(C([O-])=O)N

$$$$

Actelion Java MolfileCreator 2.0

  0  0  0  0  0  0              0 V3000
M  V30 BEGIN CTAB
M  V30 COUNTS 22 25 0 0 0
M  V30 BEGIN ATOM
M  V30 1 O 2.598 1.0 0.0 0
M  V30 2 C 2.598 0.0 0.0 0
M  V30 3 O 3.4641 -0.5 0.0 0
M  V30 4 C 1.732 -0.5 0.0 0 CFG=1
M  V30 5 C 4.2834 -0.0305 0.0 0 CFG=2
M  V30 6 C 1.732 -1.5 0.0 0
M  V30 7 C 0.866 0.0 0.0 0
M  V30 8 C 4.3301 0.9999 0.0 0
M  V30 9 C 5.1961 -0.5 0.0 0
M  V30 10 C 0.866 -1.9999 0.0 0
M  V30 11 C 2.598 -2.0 0.0 0
M  V30 12 O 0.0 -0.5 0.0 0
M  V30 13 C 5.5386 1.6319 0.0 0 CFG=1
M  V30 14 C 6.3476 0.2306 0.0 0 CFG=2
M  V30 15 C 0.866 -2.9999 0.0 0
M  V30 16 C 2.598 -3.0 0.0 0
M  V30 17 N 5.4341 0.6374 0.0 0
M  V30 18 C 6.5168 1.8398 0.0 0 CFG=2
M  V30 19 C 7.0168 0.9738 0.0 0 CFG=1
M  V30 20 C 1.732 -3.5 0.0 0
M  V30 21 C 4.6549 0.2127 0.0 0
M  V30 22 O 7.5168 1.8398 0.0 0
M  V30 END ATOM
M  V30 BEGIN BOND
M  V30 1 2 1 2
M  V30 2 1 2 3
M  V30 3 1 4 2
M  V30 4 1 5 3 CFG=3
M  V30 5 1 4 6
M  V30 6 1 4 7 CFG=1
M  V30 7 1 5 8
M  V30 8 1 5 9
M  V30 9 2 6 10
M  V30 10 1 6 11
M  V30 11 1 7 12
M  V30 12 1 13 8
M  V30 13 1 14 9
M  V30 14 1 10 15
M  V30 15 2 11 16
M  V30 16 1 13 17 CFG=1
M  V30 17 1 18 13
M  V30 18 1 19 14
M  V30 19 2 15 20
M  V30 20 1 17 21
M  V30 21 1 18 22 CFG=1
M  V30 22 1 14 17 CFG=1
M  V30 23 1 16 20
M  V30 24 1 18 19
M  V30 25 1 19 22 CFG=1
M  V30 END BOND
M  V30 BEGIN COLLECTION
M  V30 MDLV30/STEABS ATOMS=(5 5 13 14 18 19)
M  V30 MDLV30/STERAC1 ATOMS=(1 4)
M  V30 END COLLECTION
M  V30 END CTAB
M  END
>  <Molecule Name>


>  <status>
-

>  <cas>
51-34-3

>  <name>
SCOPOLAMINE

>  <ID>
466

>  <Smiles>
CN1[C@@H](C2)[C@@H]3O[C@@H]3[C@H]1C[C@H]2OC(C(CO)c1ccccc1)=O

$$$$

Actelion Java MolfileCreator 2.0

  0  0  0  0  0  0              0 V3000
M  V30 BEGIN CTAB
M  V30 COUNTS 23 26 0 0 0
M  V30 BEGIN ATOM
M  V30 1 Cl -2.598 0.0 0.0 0
M  V30 2 C -1.732 -0.4999 0.0 0
M  V30 3 C -0.866 0.0 0.0 0
M  V30 4 C -1.732 -1.4999 0.0 0
M  V30 5 C -0.866 1.0 0.0 0
M  V30 6 C 0.0 -0.5 0.0 0
M  V30 7 C -0.866 -1.9999 0.0 0
M  V30 8 N -1.7669 1.4338 0.0 0
M  V30 9 C 0.0349 1.4338 0.0 0
M  V30 10 C 0.0 -1.5 0.0 0
M  V30 11 C -1.9895 2.4088 0.0 0
M  V30 12 C 0.2574 2.4088 0.0 0
M  V30 13 C 0.7679 0.7537 0.0 0
M  V30 14 C -1.366 3.1906 0.0 0
M  V30 15 N -0.366 3.1906 0.0 0
M  V30 16 C 1.213 2.7035 0.0 0
M  V30 17 C 1.7235 1.0484 0.0 0
M  V30 18 N -1.675 4.1416 0.0 0
M  V30 19 C -0.057 4.1416 0.0 0
M  V30 20 C 1.946 2.0233 0.0 0
M  V30 21 Cl 2.4566 0.3682 0.0 0
M  V30 22 N -0.866 4.7294 0.0 0
M  V30 23 C 0.894 4.4507 0.0 0
M  V30 END ATOM
M  V30 BEGIN BOND
M  V30 1 1 1 2
M  V30 2 2 2 3
M  V30 3 1 2 4
M  V30 4 1 3 5
M  V30 5 1 3 6
M  V30 6 2 4 7
M  V30 7 2 5 8
M  V30 8 1 5 9
M  V30 9 2 6 10
M  V30 10 1 8 11
M  V30 11 2 9 12
M  V30 12 1 9 13
M  V30 13 1 11 14
M  V30 14 1 12 15
M  V30 15 1 12 16
M  V30 16 2 13 17
M  V30 17 2 14 18
M  V30 18 1 15 19
M  V30 19 2 16 20
M  V30 20 1 17 21
M  V30 21 1 18 22
M  V30 22 1 19 23
M  V30 23 1 7 10
M  V30 24 1 14 15
M  V30 25 1 17 20
M  V30 26 2 19 22
M  V30 END BOND
M  V30 END CTAB
M  END
>  <Molecule Name>


>  <status>
-

>  <cas>
28911-01-5

>  <name>
TRIAZOLAM

>  <ID>
467

>  <Smiles>
Cc1nnc2n1-c(ccc(Cl)c1)c1C(c(cccc1)c1Cl)=NC2

$$$$
_c001
Actelion Java MolfileCreator 2.0

  0  0  0  0  0  0              0 V3000
M  V30 BEGIN CTAB
M  V30 COUNTS 25 27 0 0 0
M  V30 BEGIN ATOM
M  V30 1 S 7.5264 3.4679 0.0 0 CFG=2
M  V30 2 O 8.5209 3.3634 0.0 0
M  V30 3 C 6.9386 2.6589 0.0 0
M  V30 4 C 7.1196 4.3814 0.0 0
M  V30 5 C 7.3453 1.7453 0.0 0
M  V30 6 C 5.9441 2.7634 0.0 0
M  V30 7 C 6.7575 0.9363 0.0 0
M  V30 8 C 5.3563 1.9544 0.0 0
M  V30 9 C 5.763 1.0408 0.0 0
M  V30 10 C 5.1752 0.2318 0.0 0
M  V30 11 C 4.1807 0.3364 0.0 0
M  V30 12 C 3.6807 1.2024 0.0 0
M  V30 13 C 3.5116 -0.4067 0.0 0
M  V30 14 C 2.7026 0.9945 0.0 0
M  V30 15 C 3.9897 2.1534 0.0 0
M  V30 16 C 2.598 0.0 0.0 0
M  V30 17 C 3.7195 -1.3848 0.0 0
M  V30 18 C 2.0334 1.7376 0.0 0
M  V30 19 C 3.3206 2.8966 0.0 0
M  V30 20 C 1.732 -0.5 0.0 0
M  V30 21 C 2.3424 2.6887 0.0 0
M  V30 22 C 0.866 0.0 0.0 0
M  V30 23 F 1.6733 3.4318 0.0 0
M  V30 24 O 0.866 1.0 0.0 0
M  V30 25 O 0.0 -0.5 0.0 0 CHG=-1
M  V30 END ATOM
M  V30 BEGIN BOND
M  V30 1 2 1 2
M  V30 2 1 1 3
M  V30 3 1 1 4 CFG=3
M  V30 4 2 3 5
M  V30 5 1 3 6
M  V30 6 1 5 7
M  V30 7 2 6 8
M  V30 8 2 7 9
M  V30 9 1 9 10
M  V30 10 2 10 11
M  V30 11 1 11 12
M  V30 12 1 11 13
M  V30 13 2 12 14
M  V30 14 1 12 15
M  V30 15 2 13 16
M  V30 16 1 13 17
M  V30 17 1 14 18
M  V30 18 2 15 19
M  V30 19 1 16 20
M  V30 20 2 18 21
M  V30 21 1 20 22
M  V30 22 1 21 23
M  V30 23 2 22 24
M  V30 24 1 22 25
M  V30 25 1 8 9
M  V30 26 1 14 16
M  V30 27 1 19 21
M  V30 END BOND
M  V30 BEGIN COLLECTION
M  V30 MDLV30/STERAC1 ATOMS=(1 1)
M  V30 END COLLECTION
M  V30 END CTAB
M  END
>  <Molecule Name>
_c001

>  <status>
-

>  <cas>
38194-50-2

>  <name>
SULINDAC

>  <ID>
468

>  <Smiles>
CC1=C(CC([O-])=O)c(cc(cc2)F)c2/C1=C\c(cc1)ccc1S(C)=O

$$$$

Actelion Java MolfileCreator 2.0

  0  0  0  0  0  0              0 V3000
M  V30 BEGIN CTAB
M  V30 COUNTS 17 17 0 0 0
M  V30 BEGIN ATOM
M  V30 1 S 5.1961 -0.5 0.0 0
M  V30 2 C 6.0621 0.0 0.0 0
M  V30 3 C 4.3301 0.0 0.0 0
M  V30 4 C 6.9282 -0.5 0.0 0
M  V30 5 C 3.4641 -0.5 0.0 0
M  V30 6 N 7.0327 -1.4945 0.0 0
M  V30 7 C 7.8417 -0.0932 0.0 0
M  V30 8 N 2.598 0.0 0.0 0
M  V30 9 C 8.0108 -1.7024 0.0 0
M  V30 10 N 8.5108 -0.8364 0.0 0
M  V30 11 C 8.0496 0.8848 0.0 0
M  V30 12 C 1.732 -0.5 0.0 0
M  V30 13 N 0.866 0.0 0.0 0
M  V30 14 N 1.732 -1.5 0.0 0
M  V30 15 C 0.0 -0.5 0.0 0
M  V30 16 C 2.598 -2.0 0.0 0
M  V30 17 N 3.4641 -2.5 0.0 0
M  V30 END ATOM
M  V30 BEGIN BOND
M  V30 1 1 1 2
M  V30 2 1 1 3
M  V30 3 1 2 4
M  V30 4 1 3 5
M  V30 5 1 4 6
M  V30 6 2 4 7
M  V30 7 1 5 8
M  V30 8 2 6 9
M  V30 9 1 7 10
M  V30 10 1 7 11
M  V30 11 1 8 12
M  V30 12 2 12 13
M  V30 13 1 12 14
M  V30 14 1 13 15
M  V30 15 1 14 16
M  V30 16 3 16 17
M  V30 17 1 9 10
M  V30 END BOND
M  V30 END CTAB
M  END
>  <Molecule Name>


>  <status>
-

>  <cas>
51481-61-9

>  <name>
CIMETIDINE

>  <ID>
469

>  <Smiles>
Cc1c(CSCCN/C(/NC#N)=N/C)nc[nH]1

$$$$
_c001
Actelion Java MolfileCreator 2.0

  0  0  0  0  0  0              0 V3000
M  V30 BEGIN CTAB
M  V30 COUNTS 43 49 0 0 0
M  V30 BEGIN ATOM
M  V30 1 Br 9.9559 5.4751 0.0 0
M  V30 2 C 9.3453 4.1037 0.0 0
M  V30 3 N 10.0959 2.8035 0.0 0
M  V30 4 C 7.8768 3.7915 0.0 0
M  V30 5 C 9.0914 1.6879 0.0 0
M  V30 6 C 7.7199 2.2985 0.0 0
M  V30 7 C 6.5006 4.5037 0.0 0
M  V30 8 C 9.2483 0.1949 0.0 0
M  V30 9 C 6.5053 1.4161 0.0 0
M  V30 10 C 5.2005 3.7531 0.0 0 CFG=2
M  V30 11 C 8.0337 -0.6875 0.0 0
M  V30 12 C 5.2005 2.2518 0.0 0
M  V30 13 C 6.6623 -0.0768 0.0 0
M  V30 14 N 3.9003 4.5037 0.0 0
M  V30 15 C 3.9003 1.5012 0.0 0
M  V30 16 C 2.6002 3.7531 0.0 0
M  V30 17 C 3.9003 6.005 0.0 0
M  V30 18 C 2.6002 2.2518 0.0 0 CFG=2
M  V30 19 C 1.3001 1.5012 0.0 0
M  V30 20 O 0.0 2.2518 0.0 0
M  V30 21 N 1.3001 0.0 0.0 0
M  V30 22 C 0.0 -0.7506 0.0 0 CFG=2
M  V30 23 O -1.3714 -0.14 0.0 0
M  V30 24 C -0.1569 -2.2436 0.0 0
M  V30 25 C 1.259 -1.5682 0.0 0
M  V30 26 C -2.376 -1.2556 0.0 0 CFG=1
M  V30 27 O 0.8687 -3.3215 0.0 0
M  V30 28 N -1.6253 -2.5557 0.0 0
M  V30 29 C 1.3605 -2.9207 0.0 0
M  V30 30 C 2.5966 -0.8867 0.0 0
M  V30 31 O -2.9866 0.1158 0.0 0
M  V30 32 C -3.8772 -1.2556 0.0 0 CFG=1
M  V30 33 C -2.376 -3.8559 0.0 0 CFG=2
M  V30 34 N -4.6278 -2.5557 0.0 0
M  V30 35 C -4.8818 -0.14 0.0 0
M  V30 36 C -3.8772 -3.8559 0.0 0
M  V30 37 C -1.6253 -5.156 0.0 0
M  V30 38 C -6.0963 -2.2436 0.0 0
M  V30 39 C -6.2532 -0.7506 0.0 0
M  V30 40 O -4.6278 -5.156 0.0 0
M  V30 41 C -2.376 -6.4561 0.0 0
M  V30 42 C -3.8772 -6.4561 0.0 0
M  V30 43 C -1.6253 -7.7563 0.0 0
M  V30 END ATOM
M  V30 BEGIN BOND
M  V30 1 1 1 2
M  V30 2 1 2 3
M  V30 3 2 2 4
M  V30 4 1 3 5
M  V30 5 1 4 6
M  V30 6 1 4 7
M  V30 7 1 5 8
M  V30 8 1 6 9
M  V30 9 1 10 7
M  V30 10 2 8 11
M  V30 11 1 9 12
M  V30 12 2 9 13
M  V30 13 1 10 14 CFG=3
M  V30 14 2 12 15
M  V30 15 1 14 16
M  V30 16 1 14 17
M  V30 17 1 18 15
M  V30 18 1 18 19 CFG=1
M  V30 19 2 19 20
M  V30 20 1 19 21
M  V30 21 1 22 21 CFG=1
M  V30 22 1 22 23
M  V30 23 1 22 24
M  V30 24 1 22 25
M  V30 25 1 26 23
M  V30 26 2 24 27
M  V30 27 1 24 28
M  V30 28 1 25 29
M  V30 29 1 25 30
M  V30 30 1 26 31 CFG=1
M  V30 31 1 32 26
M  V30 32 1 33 28
M  V30 33 1 32 34 CFG=1
M  V30 34 1 32 35
M  V30 35 1 33 36
M  V30 36 1 33 37 CFG=1
M  V30 37 1 34 38
M  V30 38 1 35 39
M  V30 39 2 36 40
M  V30 40 1 37 41
M  V30 41 1 41 42
M  V30 42 1 41 43
M  V30 43 2 5 6
M  V30 44 1 10 12
M  V30 45 1 11 13
M  V30 46 1 16 18
M  V30 47 1 26 28
M  V30 48 1 34 36
M  V30 49 1 38 39
M  V30 END BOND
M  V30 BEGIN COLLECTION
M  V30 MDLV30/STERAC1 ATOMS=(6 10 18 22 26 32 33)
M  V30 END COLLECTION
M  V30 END CTAB
M  END
>  <Molecule Name>
_c001

>  <status>
-

>  <cas>
25614-03-3

>  <name>
BROMOCRIPTINE

>  <ID>
470

>  <Smiles>
CC(C)C[C@@H](C(N(CCC1)[C@@H]1[C@]1(O)O[C@@]2(C(C)C)NC([C@@H](CN(C)[C@@H]3C4)C=C3c3cccc([nH]5)c3c4c5Br)=O)=O)N1C2=O

$$$$

Actelion Java MolfileCreator 2.0

  0  0  0  0  0  0              0 V3000
M  V30 BEGIN CTAB
M  V30 COUNTS 19 19 0 0 0
M  V30 BEGIN ATOM
M  V30 1 O 5.1961 -0.5 0.0 0
M  V30 2 C 6.0621 0.0 0.0 0
M  V30 3 C 4.3301 0.0 0.0 0
M  V30 4 C 6.9282 -0.5 0.0 0
M  V30 5 C 6.0621 0.9999 0.0 0
M  V30 6 C 3.4641 -0.5 0.0 0 CFG=1
M  V30 7 C 7.7942 0.0 0.0 0
M  V30 8 C 6.9282 1.4999 0.0 0
M  V30 9 O 3.4641 -1.5 0.0 0
M  V30 10 C 2.598 0.0 0.0 0
M  V30 11 C 7.7942 0.9999 0.0 0
M  V30 12 N 1.732 -0.5 0.0 0
M  V30 13 C 8.6602 1.4999 0.0 0
M  V30 14 C 0.866 0.0 0.0 0
M  V30 15 C 8.6602 2.4999 0.0 0
M  V30 16 C 0.866 1.0 0.0 0
M  V30 17 C 0.0 -0.5 0.0 0
M  V30 18 O 9.5262 2.9999 0.0 0
M  V30 19 C 9.5262 3.9999 0.0 0
M  V30 END ATOM
M  V30 BEGIN BOND
M  V30 1 1 1 2
M  V30 2 1 1 3
M  V30 3 2 2 4
M  V30 4 1 2 5
M  V30 5 1 6 3
M  V30 6 1 4 7
M  V30 7 2 5 8
M  V30 8 1 6 9 CFG=1
M  V30 9 1 6 10
M  V30 10 2 7 11
M  V30 11 1 10 12
M  V30 12 1 11 13
M  V30 13 1 12 14
M  V30 14 1 13 15
M  V30 15 1 14 16
M  V30 16 1 14 17
M  V30 17 1 15 18
M  V30 18 1 18 19
M  V30 19 1 8 11
M  V30 END BOND
M  V30 BEGIN COLLECTION
M  V30 MDLV30/STERAC1 ATOMS=(1 6)
M  V30 END COLLECTION
M  V30 END CTAB
M  END
>  <Molecule Name>


>  <status>
-

>  <cas>
37350-58-6

>  <name>
METOPROLOL

>  <ID>
471

>  <Smiles>
CC(C)NCC(COc1ccc(CCOC)cc1)O

$$$$

Actelion Java MolfileCreator 2.0

  0  0  0  0  0  0              0 V3000
M  V30 BEGIN CTAB
M  V30 COUNTS 22 23 0 0 0
M  V30 BEGIN ATOM
M  V30 1 O 4.3301 0.0 0.0 0
M  V30 2 C 5.1961 -0.5 0.0 0
M  V30 3 C 3.4641 -0.5 0.0 0
M  V30 4 C 5.1961 -1.5 0.0 0
M  V30 5 C 6.0621 0.0 0.0 0
M  V30 6 C 2.598 0.0 0.0 0 CFG=1
M  V30 7 C 6.0621 -2.0 0.0 0
M  V30 8 C 4.3301 -1.9999 0.0 0
M  V30 9 C 6.9282 -0.5 0.0 0
M  V30 10 O 2.598 1.0 0.0 0
M  V30 11 C 1.732 -0.5 0.0 0
M  V30 12 C 6.9282 -1.5 0.0 0
M  V30 13 C 6.0621 -3.0 0.0 0
M  V30 14 C 4.3301 -3.0 0.0 0 CFG=1
M  V30 15 N 0.866 0.0 0.0 0
M  V30 16 C 5.1961 -3.4999 0.0 0 CFG=2
M  V30 17 O 3.4641 -3.4999 0.0 0
M  V30 18 C 0.0 -0.5 0.0 0
M  V30 19 O 5.1961 -4.4999 0.0 0
M  V30 20 C 0.4999 -1.366 0.0 0
M  V30 21 C -0.866 -0.9999 0.0 0
M  V30 22 C -0.4999 0.366 0.0 0
M  V30 END ATOM
M  V30 BEGIN BOND
M  V30 1 1 1 2
M  V30 2 1 1 3
M  V30 3 2 2 4
M  V30 4 1 2 5
M  V30 5 1 6 3
M  V30 6 1 4 7
M  V30 7 1 4 8
M  V30 8 2 5 9
M  V30 9 1 6 10 CFG=3
M  V30 10 1 6 11
M  V30 11 2 7 12
M  V30 12 1 7 13
M  V30 13 1 14 8
M  V30 14 1 11 15
M  V30 15 1 16 13
M  V30 16 1 14 17 CFG=1
M  V30 17 1 15 18
M  V30 18 1 16 19 CFG=1
M  V30 19 1 18 20
M  V30 20 1 18 21
M  V30 21 1 18 22
M  V30 22 1 9 12
M  V30 23 1 14 16
M  V30 END BOND
M  V30 BEGIN COLLECTION
M  V30 MDLV30/STERAC1 ATOMS=(3 6 14 16)
M  V30 END COLLECTION
M  V30 END CTAB
M  END
>  <Molecule Name>


>  <status>
-

>  <cas>
42200-33-9

>  <name>
NADOLOL

>  <ID>
472

>  <Smiles>
CC(C)(C)NC[C@@H](COc1c(C[C@@H]([C@@H](C2)O)O)c2ccc1)O

$$$$

Actelion Java MolfileCreator 2.0

  0  0  0  0  0  0              0 V3000
M  V30 BEGIN CTAB
M  V30 COUNTS 28 30 0 0 0
M  V30 BEGIN ATOM
M  V30 1 O 3.4641 -0.5 0.0 0
M  V30 2 C 4.3301 0.0 0.0 0
M  V30 3 C 2.598 0.0 0.0 0
M  V30 4 C 5.1961 -0.4999 0.0 0
M  V30 5 C 4.3301 0.9999 0.0 0
M  V30 6 C 1.732 -0.5 0.0 0
M  V30 7 C 6.0621 0.0 0.0 0
M  V30 8 C 5.1961 1.4999 0.0 0
M  V30 9 N 0.866 0.0 0.0 0
M  V30 10 C 6.0621 1.0 0.0 0
M  V30 11 C 0.866 1.0 0.0 0
M  V30 12 C 0.0 -0.5 0.0 0
M  V30 13 C 6.9282 1.5 0.0 0
M  V30 14 C 7.7942 1.0 0.0 0
M  V30 15 C 6.9282 2.5 0.0 0
M  V30 16 C 7.7942 0.0 0.0 0
M  V30 17 C 8.6602 1.4999 0.0 0
M  V30 18 C 6.0621 3.0 0.0 0
M  V30 19 C 7.7942 3.0 0.0 0
M  V30 20 C 8.6602 -0.5 0.0 0
M  V30 21 C 9.5262 0.9999 0.0 0
M  V30 22 C 6.0621 4.0 0.0 0
M  V30 23 C 5.1961 2.5 0.0 0
M  V30 24 C 7.7942 4.0 0.0 0
M  V30 25 C 9.5262 0.0 0.0 0
M  V30 26 C 5.1961 4.5 0.0 0
M  V30 27 C 4.3301 3.0 0.0 0
M  V30 28 C 4.3301 4.0 0.0 0
M  V30 END ATOM
M  V30 BEGIN BOND
M  V30 1 1 1 2
M  V30 2 1 1 3
M  V30 3 2 2 4
M  V30 4 1 2 5
M  V30 5 1 3 6
M  V30 6 1 4 7
M  V30 7 2 5 8
M  V30 8 1 6 9
M  V30 9 2 7 10
M  V30 10 1 9 11
M  V30 11 1 9 12
M  V30 12 1 10 13
M  V30 13 1 13 14
M  V30 14 2 13 15
M  V30 15 2 14 16
M  V30 16 1 14 17
M  V30 17 1 15 18
M  V30 18 1 15 19
M  V30 19 1 16 20
M  V30 20 2 17 21
M  V30 21 2 18 22
M  V30 22 1 18 23
M  V30 23 1 19 24
M  V30 24 2 20 25
M  V30 25 1 22 26
M  V30 26 2 23 27
M  V30 27 2 26 28
M  V30 28 1 8 10
M  V30 29 1 21 25
M  V30 30 1 27 28
M  V30 END BOND
M  V30 END CTAB
M  END
>  <Molecule Name>


>  <status>
-

>  <cas>
10540-29-1

>  <name>
TAMOXIFEN

>  <ID>
473

>  <Smiles>
CC/C(/c1ccccc1)=C(\c1ccccc1)/c(cc1)ccc1OCCN(C)C

$$$$

Actelion Java MolfileCreator 2.0

  0  0  0  0  0  0              0 V3000
M  V30 BEGIN CTAB
M  V30 COUNTS 20 21 0 0 0
M  V30 BEGIN ATOM
M  V30 1 O 4.3301 -4.9999 0.0 0
M  V30 2 N 5.1961 -4.4999 0.0 0 CHG=1
M  V30 3 O 6.0621 -5.0 0.0 0 CHG=-1
M  V30 4 C 5.1961 -3.4999 0.0 0
M  V30 5 C 6.0621 -3.0 0.0 0
M  V30 6 C 4.3301 -2.9999 0.0 0
M  V30 7 C 6.0621 -1.9999 0.0 0
M  V30 8 C 6.9282 -3.5 0.0 0
M  V30 9 C 4.3301 -2.0 0.0 0
M  V30 10 C 5.1961 -1.5 0.0 0
M  V30 11 O 7.7942 -3.0 0.0 0
M  V30 12 N 3.4641 -1.5 0.0 0
M  V30 13 C 5.1961 -0.5 0.0 0
M  V30 14 C 3.4641 -0.5 0.0 0 CFG=2
M  V30 15 C 4.3301 0.0 0.0 0
M  V30 16 C 2.598 0.0 0.0 0
M  V30 17 N 1.732 -0.5 0.0 0
M  V30 18 C 0.866 0.0 0.0 0
M  V30 19 C 0.866 1.0 0.0 0
M  V30 20 C 0.0 -0.5 0.0 0
M  V30 END ATOM
M  V30 BEGIN BOND
M  V30 1 2 1 2
M  V30 2 1 2 3
M  V30 3 1 2 4
M  V30 4 2 4 5
M  V30 5 1 4 6
M  V30 6 1 5 7
M  V30 7 1 5 8
M  V30 8 2 6 9
M  V30 9 2 7 10
M  V30 10 1 8 11
M  V30 11 1 9 12
M  V30 12 1 10 13
M  V30 13 1 14 12
M  V30 14 1 13 15
M  V30 15 1 14 16 CFG=1
M  V30 16 1 16 17
M  V30 17 1 17 18
M  V30 18 1 18 19
M  V30 19 1 18 20
M  V30 20 1 9 10
M  V30 21 1 14 15
M  V30 END BOND
M  V30 BEGIN COLLECTION
M  V30 MDLV30/STERAC1 ATOMS=(1 14)
M  V30 END COLLECTION
M  V30 END CTAB
M  END
>  <Molecule Name>


>  <status>
DISCONTINUED

>  <cas>
21738-42-1

>  <name>
OXAMNIQUINE

>  <ID>
474

>  <Smiles>
CC(C)NCC1Nc2cc([N+]([O-])=O)c(CO)cc2CC1

$$$$
_c001
Actelion Java MolfileCreator 2.0

  0  0  0  0  0  0              0 V3000
M  V30 BEGIN CTAB
M  V30 COUNTS 26 26 0 0 0
M  V30 BEGIN ATOM
M  V30 1 O 6.4952 6.0 0.0 0
M  V30 2 C 6.4952 4.5 0.0 0
M  V30 3 O 7.7942 3.75 0.0 0 CHG=-1
M  V30 4 C 5.1961 3.75 0.0 0
M  V30 5 C 5.1961 2.25 0.0 0
M  V30 6 C 3.8971 1.5 0.0 0
M  V30 7 C 3.8971 0.0 0.0 0
M  V30 8 C 2.598 -0.75 0.0 0
M  V30 9 C 1.299 0.0 0.0 0
M  V30 10 C 0.0 -0.75 0.0 0 CFG=1
M  V30 11 C -1.3703 -0.1398 0.0 0 CFG=2
M  V30 12 C -0.1567 -2.2417 0.0 0 CFG=2
M  V30 13 C -1.6821 1.3273 0.0 0
M  V30 14 C -2.374 -1.2546 0.0 0 CFG=2
M  V30 15 O 0.9579 -3.2454 0.0 0
M  V30 16 C -1.624 -2.5536 0.0 0
M  V30 17 C -3.1087 1.7908 0.0 0
M  V30 18 O -3.8658 -1.0978 0.0 0
M  V30 19 C -3.4206 3.258 0.0 0 CFG=1
M  V30 20 O -1.9534 3.5699 0.0 0
M  V30 21 C -4.8472 3.7216 0.0 0
M  V30 22 C -2.9571 4.6846 0.0 0
M  V30 23 C -5.159 5.1888 0.0 0
M  V30 24 C -6.5856 5.6523 0.0 0
M  V30 25 C -6.8975 7.1195 0.0 0
M  V30 26 C -8.3241 7.5831 0.0 0
M  V30 END ATOM
M  V30 BEGIN BOND
M  V30 1 2 1 2
M  V30 2 1 2 3
M  V30 3 1 2 4
M  V30 4 1 4 5
M  V30 5 1 5 6
M  V30 6 1 6 7
M  V30 7 2 7 8
M  V30 8 1 8 9
M  V30 9 1 10 9 CFG=3
M  V30 10 1 11 10
M  V30 11 1 12 10
M  V30 12 1 11 13 CFG=1
M  V30 13 1 14 11
M  V30 14 1 12 15 CFG=3
M  V30 15 1 12 16
M  V30 16 2 13 17
M  V30 17 1 14 18 CFG=3
M  V30 18 1 19 17
M  V30 19 1 19 20 CFG=3
M  V30 20 1 19 21
M  V30 21 1 19 22
M  V30 22 1 21 23
M  V30 23 1 23 24
M  V30 24 1 24 25
M  V30 25 1 25 26
M  V30 26 1 14 16
M  V30 END BOND
M  V30 BEGIN COLLECTION
M  V30 MDLV30/STERAC1 ATOMS=(5 10 11 12 14 19)
M  V30 END COLLECTION
M  V30 END CTAB
M  END
>  <Molecule Name>
_c001

>  <status>
-

>  <cas>
35700-23-3

>  <name>
CARBOPROST

>  <ID>
475

>  <Smiles>
CCCCC[C@@](C)(/C=C/[C@@H]([C@H](C/C=C\CCCC([O-])=O)[C@@H](C1)O)[C@H]1O)O

$$$$

Actelion Java MolfileCreator 2.0

  0  0  0  0  0  0              0 V3000
M  V30 BEGIN CTAB
M  V30 COUNTS 19 20 0 0 0
M  V30 BEGIN ATOM
M  V30 1 Cl 2.598 1.0 0.0 0
M  V30 2 C 2.598 0.0 0.0 0
M  V30 3 C 1.732 -0.5 0.0 0
M  V30 4 C 3.4641 -0.4999 0.0 0
M  V30 5 N 0.866 0.0 0.0 0
M  V30 6 C 1.732 -1.5 0.0 0
M  V30 7 C 3.4641 -1.4999 0.0 0
M  V30 8 C 4.3301 0.0 0.0 0
M  V30 9 C 0.0 -0.5 0.0 0
M  V30 10 Cl 0.866 -2.0 0.0 0
M  V30 11 C 2.598 -1.9999 0.0 0
M  V30 12 C -0.866 0.0 0.0 0
M  V30 13 C 0.0 -1.4999 0.0 0
M  V30 14 C -0.866 1.0 0.0 0
M  V30 15 C -1.732 -0.4999 0.0 0
M  V30 16 C -0.866 -1.9999 0.0 0
M  V30 17 O 0.0 1.5 0.0 0
M  V30 18 O -1.732 1.5 0.0 0 CHG=-1
M  V30 19 C -1.732 -1.4999 0.0 0
M  V30 END ATOM
M  V30 BEGIN BOND
M  V30 1 1 1 2
M  V30 2 2 2 3
M  V30 3 1 2 4
M  V30 4 1 3 5
M  V30 5 1 3 6
M  V30 6 2 4 7
M  V30 7 1 4 8
M  V30 8 1 5 9
M  V30 9 1 6 10
M  V30 10 2 6 11
M  V30 11 2 9 12
M  V30 12 1 9 13
M  V30 13 1 12 14
M  V30 14 1 12 15
M  V30 15 2 13 16
M  V30 16 2 14 17
M  V30 17 1 14 18
M  V30 18 2 15 19
M  V30 19 1 7 11
M  V30 20 1 16 19
M  V30 END BOND
M  V30 END CTAB
M  END
>  <Molecule Name>


>  <status>
-

>  <cas>
644-62-2

>  <name>
MECLOFENAMATE

>  <ID>
476

>  <Smiles>
Cc(c(Cl)c1Nc(cccc2)c2C([O-])=O)ccc1Cl

$$$$

Actelion Java MolfileCreator 2.0

  0  0  0  0  0  0              0 V3000
M  V30 BEGIN CTAB
M  V30 COUNTS 21 22 0 0 0
M  V30 BEGIN ATOM
M  V30 1 S 6.7788 -0.8364 0.0 0
M  V30 2 N 6.1096 -0.0932 0.0 0
M  V30 3 N 6.2788 -1.7024 0.0 0
M  V30 4 C 5.1961 -0.5 0.0 0
M  V30 5 C 5.3006 -1.4945 0.0 0
M  V30 6 O 4.3301 0.0 0.0 0
M  V30 7 N 4.5575 -2.1636 0.0 0
M  V30 8 C 3.4641 -0.5 0.0 0
M  V30 9 C 3.6064 -1.8546 0.0 0
M  V30 10 C 4.7654 -3.1418 0.0 0
M  V30 11 C 2.598 0.0 0.0 0 CFG=1
M  V30 12 C 2.8633 -2.5237 0.0 0
M  V30 13 C 4.0223 -3.8109 0.0 0
M  V30 14 O 2.598 1.0 0.0 0
M  V30 15 C 1.732 -0.5 0.0 0
M  V30 16 O 3.0712 -3.5019 0.0 0
M  V30 17 N 0.866 0.0 0.0 0
M  V30 18 C 0.0 -0.5 0.0 0
M  V30 19 C 0.4999 -1.366 0.0 0
M  V30 20 C -0.866 -0.9999 0.0 0
M  V30 21 C -0.4999 0.366 0.0 0
M  V30 END ATOM
M  V30 BEGIN BOND
M  V30 1 1 1 2
M  V30 2 1 1 3
M  V30 3 2 2 4
M  V30 4 2 3 5
M  V30 5 1 4 6
M  V30 6 1 5 7
M  V30 7 1 6 8
M  V30 8 1 7 9
M  V30 9 1 7 10
M  V30 10 1 11 8
M  V30 11 1 9 12
M  V30 12 1 10 13
M  V30 13 1 11 14 CFG=3
M  V30 14 1 11 15
M  V30 15 1 12 16
M  V30 16 1 15 17
M  V30 17 1 17 18
M  V30 18 1 18 19
M  V30 19 1 18 20
M  V30 20 1 18 21
M  V30 21 1 4 5
M  V30 22 1 13 16
M  V30 END BOND
M  V30 BEGIN COLLECTION
M  V30 MDLV30/STERAC1 ATOMS=(1 11)
M  V30 END COLLECTION
M  V30 END CTAB
M  END
>  <Molecule Name>


>  <status>
-

>  <cas>
26839-75-8

>  <name>
TIMOLOL

>  <ID>
477

>  <Smiles>
CC(C)(C)NCC(COc1nsnc1N1CCOCC1)O

$$$$

Actelion Java MolfileCreator 2.0

  0  0  0  0  0  0              0 V3000
M  V30 BEGIN CTAB
M  V30 COUNTS 22 25 0 0 0
M  V30 BEGIN ATOM
M  V30 1 Cl 0.866 0.0 0.0 0
M  V30 2 C 0.0 -0.5 0.0 0
M  V30 3 C -0.866 0.0 0.0 0
M  V30 4 C 0.0 -1.4999 0.0 0
M  V30 5 C -1.732 -0.4999 0.0 0
M  V30 6 C -0.866 -1.9999 0.0 0
M  V30 7 C -2.5138 0.1234 0.0 0
M  V30 8 C -1.732 -1.4999 0.0 0
M  V30 9 N -3.4888 -0.099 0.0 0
M  V30 10 N -2.2913 1.0984 0.0 0
M  V30 11 O -2.5138 -2.1234 0.0 0
M  V30 12 C -3.9226 -0.9999 0.0 0
M  V30 13 C -1.3357 1.3931 0.0 0
M  V30 14 C -3.0244 1.7785 0.0 0
M  V30 15 C -3.4888 -1.9009 0.0 0
M  V30 16 C -4.9198 -0.9252 0.0 0
M  V30 17 C -1.1132 2.3681 0.0 0
M  V30 18 C -2.8018 2.7535 0.0 0
M  V30 19 C -4.0521 -2.7272 0.0 0
M  V30 20 C -5.4832 -1.7515 0.0 0
M  V30 21 N -1.8463 3.0482 0.0 0
M  V30 22 C -5.0493 -2.6524 0.0 0
M  V30 END ATOM
M  V30 BEGIN BOND
M  V30 1 1 1 2
M  V30 2 2 2 3
M  V30 3 1 2 4
M  V30 4 1 3 5
M  V30 5 2 4 6
M  V30 6 1 5 7
M  V30 7 2 5 8
M  V30 8 2 7 9
M  V30 9 1 7 10
M  V30 10 1 8 11
M  V30 11 1 9 12
M  V30 12 1 10 13
M  V30 13 1 10 14
M  V30 14 1 11 15
M  V30 15 1 12 16
M  V30 16 1 13 17
M  V30 17 1 14 18
M  V30 18 1 15 19
M  V30 19 2 16 20
M  V30 20 1 17 21
M  V30 21 2 19 22
M  V30 22 1 6 8
M  V30 23 2 12 15
M  V30 24 1 18 21
M  V30 25 1 20 22
M  V30 END BOND
M  V30 END CTAB
M  END
>  <Molecule Name>


>  <status>
-

>  <cas>
14028-44-5

>  <name>
AMOXAPINE

>  <ID>
478

>  <Smiles>
Clc(cc1)cc2c1Oc(cccc1)c1N=C2N1CCNCC1

$$$$

Actelion Java MolfileCreator 2.0

  0  0  0  0  0  0              0 V3000
M  V30 BEGIN CTAB
M  V30 COUNTS 26 31 0 0 0
M  V30 BEGIN ATOM
M  V30 1 O 4.9552 -2.416 0.0 0
M  V30 2 C 5.3619 -1.5024 0.0 0
M  V30 3 C 3.9606 -2.3114 0.0 0 CFG=1
M  V30 4 C 6.2845 -1.0396 0.0 0
M  V30 5 C 4.6188 -0.8333 0.0 0
M  V30 6 C 3.7527 -1.3333 0.0 0 CFG=1
M  V30 7 C 3.0985 -2.879 0.0 0 CFG=2
M  V30 8 O 7.1069 -1.6086 0.0 0
M  V30 9 C 6.389 -0.0451 0.0 0
M  V30 10 C 4.6188 0.1666 0.0 0
M  V30 11 C 2.8867 -0.8333 0.0 0 CFG=1
M  V30 12 C 2.6299 -1.9983 0.0 0
M  V30 13 O 3.1801 -3.8757 0.0 0
M  V30 14 C 2.185 -2.4723 0.0 0
M  V30 15 C 5.58 0.5426 0.0 0
M  V30 16 C 3.7527 0.6666 0.0 0
M  V30 17 O 2.0943 -0.4385 0.0 0
M  V30 18 C 2.8867 0.1666 0.0 0 CFG=2
M  V30 19 C 2.1317 -1.4149 0.0 0
M  V30 20 C 1.6567 -1.5047 0.0 0
M  V30 21 N 1.6667 -0.511 0.0 0
M  V30 22 C 0.866 0.0 0.0 0
M  V30 23 C 0.0 -0.5 0.0 0
M  V30 24 C -0.9659 -0.2411 0.0 0
M  V30 25 C -0.2588 -1.4659 0.0 0
M  V30 26 C -1.2247 -1.2071 0.0 0
M  V30 END ATOM
M  V30 BEGIN BOND
M  V30 1 1 1 2
M  V30 2 1 3 1 CFG=3
M  V30 3 2 2 4
M  V30 4 1 2 5
M  V30 5 1 6 3
M  V30 6 1 7 3
M  V30 7 1 4 8
M  V30 8 1 4 9
M  V30 9 2 5 10
M  V30 10 1 11 6
M  V30 11 1 6 12 CFG=1
M  V30 12 1 7 13 CFG=3
M  V30 13 1 7 14
M  V30 14 2 9 15
M  V30 15 1 10 16
M  V30 16 1 11 17 CFG=1
M  V30 17 1 18 11
M  V30 18 1 11 19
M  V30 19 1 12 20
M  V30 20 1 18 21 CFG=1
M  V30 21 1 21 22
M  V30 22 1 22 23
M  V30 23 1 23 24
M  V30 24 1 23 25
M  V30 25 1 24 26
M  V30 26 1 5 6
M  V30 27 1 10 15
M  V30 28 1 14 19
M  V30 29 1 16 18
M  V30 30 1 20 21
M  V30 31 1 25 26
M  V30 END BOND
M  V30 BEGIN COLLECTION
M  V30 MDLV30/STERAC1 ATOMS=(5 3 6 7 11 18)
M  V30 END COLLECTION
M  V30 END CTAB
M  END
>  <Molecule Name>


>  <status>
-

>  <cas>
20594-83-6

>  <name>
NALBUPHINE

>  <ID>
479

>  <Smiles>
O[C@H](CC[C@]([C@H](C1)N(CC2CCC2)CC2)([C@]22c3c1cc1)O)[C@H]2Oc3c1O

$$$$
_c001
Actelion Java MolfileCreator 2.0

  0  0  0  0  0  0              0 V3000
M  V30 BEGIN CTAB
M  V30 COUNTS 30 32 0 0 0
M  V30 BEGIN ATOM
M  V30 1 O 3.8301 0.866 0.0 0
M  V30 2 C 4.3301 0.0 0.0 0
M  V30 3 C 3.4641 -0.5 0.0 0
M  V30 4 C 5.1961 0.4999 0.0 0
M  V30 5 C 4.8301 -0.866 0.0 0
M  V30 6 C 2.598 0.0 0.0 0
M  V30 7 C 1.732 -0.5 0.0 0
M  V30 8 C 0.866 0.0 0.0 0 CFG=1
M  V30 9 C 0.866 1.0 0.0 0 CFG=1
M  V30 10 C 0.0 -0.5 0.0 0
M  V30 11 C 1.675 1.5877 0.0 0 CFG=1
M  V30 12 C 0.057 1.5877 0.0 0
M  V30 13 C 1.366 2.5388 0.0 0 CFG=2
M  V30 14 C 2.6531 1.3798 0.0 0
M  V30 15 C 1.8829 0.6096 0.0 0
M  V30 16 C 0.366 2.5388 0.0 0
M  V30 17 C 2.0351 3.2819 0.0 0
M  V30 18 C 3.3223 2.123 0.0 0
M  V30 19 C 1.7261 4.233 0.0 0
M  V30 20 C 3.0133 3.074 0.0 0
M  V30 21 C 2.3952 4.9761 0.0 0
M  V30 22 C 2.0862 5.9272 0.0 0
M  V30 23 C 1.1081 6.1351 0.0 0
M  V30 24 C 2.7553 6.6703 0.0 0
M  V30 25 C 0.4389 5.392 0.0 0
M  V30 26 C 0.799 7.0862 0.0 0 CFG=2
M  V30 27 C 2.4463 7.6214 0.0 0 CFG=1
M  V30 28 O -0.179 7.2941 0.0 0
M  V30 29 C 1.4682 7.8293 0.0 0
M  V30 30 O 3.1154 8.3645 0.0 0
M  V30 END ATOM
M  V30 BEGIN BOND
M  V30 1 1 1 2
M  V30 2 1 2 3
M  V30 3 1 2 4
M  V30 4 1 2 5
M  V30 5 1 3 6
M  V30 6 1 6 7
M  V30 7 1 8 7
M  V30 8 1 9 8
M  V30 9 1 8 10 CFG=3
M  V30 10 1 11 9
M  V30 11 1 9 12 CFG=3
M  V30 12 1 13 11
M  V30 13 1 11 14
M  V30 14 1 11 15 CFG=3
M  V30 15 1 12 16
M  V30 16 1 13 17
M  V30 17 1 14 18
M  V30 18 2 17 19
M  V30 19 1 17 20
M  V30 20 1 19 21
M  V30 21 2 21 22
M  V30 22 1 22 23
M  V30 23 1 22 24
M  V30 24 2 23 25
M  V30 25 1 26 23
M  V30 26 1 27 24
M  V30 27 1 26 28 CFG=3
M  V30 28 1 26 29
M  V30 29 1 27 30 CFG=1
M  V30 30 1 13 16 CFG=3
M  V30 31 1 18 20
M  V30 32 1 27 29
M  V30 END BOND
M  V30 BEGIN COLLECTION
M  V30 MDLV30/STERAC1 ATOMS=(6 8 9 11 13 26 27)
M  V30 END COLLECTION
M  V30 END CTAB
M  END
>  <Molecule Name>
_c001

>  <status>
-

>  <cas>
32222-06-3

>  <name>
CALCITRIOL

>  <ID>
480

>  <Smiles>
C[C@@H](CCCC(C)(C)O)[C@H](CC1)[C@](C)(CCC2)[C@H]1/C2=C/C=C(/C[C@@H](C[C@H]1O)O)\C1=C

$$$$

Actelion Java MolfileCreator 2.0

  0  0  0  0  0  0              0 V3000
M  V30 BEGIN CTAB
M  V30 COUNTS 15 16 0 0 0
M  V30 BEGIN ATOM
M  V30 1 O 5.3529 -2.2417 0.0 0
M  V30 2 C 6.8201 -2.5536 0.0 0
M  V30 3 C 5.1961 -0.75 0.0 0 CFG=2
M  V30 4 O 7.5701 -1.2546 0.0 0
M  V30 5 C 5.9384 -3.7671 0.0 0
M  V30 6 C 8.3119 -2.7104 0.0 0
M  V30 7 C 6.5664 -0.1398 0.0 0
M  V30 8 C 3.8971 0.0 0.0 0
M  V30 9 C 6.5485 -5.1374 0.0 0
M  V30 10 C 8.922 -4.0807 0.0 0
M  V30 11 N 2.598 -0.75 0.0 0
M  V30 12 C 8.0403 -5.2942 0.0 0
M  V30 13 C 1.299 0.0 0.0 0
M  V30 14 N 1.299 1.5 0.0 0
M  V30 15 N 0.0 -0.75 0.0 0
M  V30 END ATOM
M  V30 BEGIN BOND
M  V30 1 1 1 2
M  V30 2 1 3 1
M  V30 3 1 2 4
M  V30 4 1 2 5
M  V30 5 1 2 6
M  V30 6 1 3 7
M  V30 7 1 3 8 CFG=1
M  V30 8 1 5 9
M  V30 9 1 6 10
M  V30 10 1 8 11
M  V30 11 1 9 12
M  V30 12 2 11 13
M  V30 13 1 13 14
M  V30 14 1 13 15
M  V30 15 1 4 7
M  V30 16 1 10 12
M  V30 END BOND
M  V30 BEGIN COLLECTION
M  V30 MDLV30/STERAC1 ATOMS=(1 3)
M  V30 END COLLECTION
M  V30 END CTAB
M  END
>  <Molecule Name>


>  <status>
DISCONTINUED

>  <cas>
40580-59-4

>  <name>
GUANADREL

>  <ID>
481

>  <Smiles>
NC(N)=NCC1OC2(CCCCC2)OC1

$$$$

Actelion Java MolfileCreator 2.0

  0  0  0  0  0  0              0 V3000
M  V30 BEGIN CTAB
M  V30 COUNTS 22 23 0 0 0
M  V30 BEGIN ATOM
M  V30 1 O 4.3301 0.0 0.0 0
M  V30 2 C 5.1961 -0.5 0.0 0
M  V30 3 C 3.4641 -0.5 0.0 0
M  V30 4 C 5.1961 -1.5 0.0 0
M  V30 5 C 6.0621 0.0 0.0 0
M  V30 6 C 2.598 0.0 0.0 0 CFG=2
M  V30 7 C 6.0621 -2.0 0.0 0
M  V30 8 C 4.3301 -1.9999 0.0 0
M  V30 9 C 6.9282 -0.5 0.0 0
M  V30 10 O 2.598 1.0 0.0 0
M  V30 11 C 1.732 -0.5 0.0 0
M  V30 12 C 6.9282 -1.5 0.0 0
M  V30 13 C 6.0621 -3.0 0.0 0
M  V30 14 C 4.3301 -3.0 0.0 0 CFG=1
M  V30 15 N 0.866 0.0 0.0 0
M  V30 16 C 5.1961 -3.4999 0.0 0 CFG=2
M  V30 17 O 3.4641 -3.4999 0.0 0
M  V30 18 C 0.0 -0.5 0.0 0
M  V30 19 O 5.1961 -4.4999 0.0 0
M  V30 20 C 0.4999 -1.366 0.0 0
M  V30 21 C -0.866 -0.9999 0.0 0
M  V30 22 C -0.4999 0.366 0.0 0
M  V30 END ATOM
M  V30 BEGIN BOND
M  V30 1 1 1 2
M  V30 2 1 1 3
M  V30 3 2 2 4
M  V30 4 1 2 5
M  V30 5 1 6 3
M  V30 6 1 4 7
M  V30 7 1 4 8
M  V30 8 2 5 9
M  V30 9 1 6 10 CFG=1
M  V30 10 1 6 11
M  V30 11 2 7 12
M  V30 12 1 7 13
M  V30 13 1 14 8
M  V30 14 1 11 15
M  V30 15 1 16 13
M  V30 16 1 14 17 CFG=1
M  V30 17 1 15 18
M  V30 18 1 16 19 CFG=1
M  V30 19 1 18 20
M  V30 20 1 18 21
M  V30 21 1 18 22
M  V30 22 1 9 12
M  V30 23 1 14 16
M  V30 END BOND
M  V30 BEGIN COLLECTION
M  V30 MDLV30/STERAC1 ATOMS=(3 6 14 16)
M  V30 END COLLECTION
M  V30 END CTAB
M  END
>  <Molecule Name>


>  <status>
-

>  <cas>
42200-33-9

>  <name>
NADOLOL

>  <ID>
482

>  <Smiles>
CC(C)(C)NC[C@H](COc1c(C[C@@H]([C@@H](C2)O)O)c2ccc1)O

$$$$

Actelion Java MolfileCreator 2.0

  0  0  0  0  0  0              0 V3000
M  V30 BEGIN CTAB
M  V30 COUNTS 19 21 0 0 0
M  V30 BEGIN ATOM
M  V30 1 O 3.8971 1.5 0.0 0
M  V30 2 C 3.8971 0.0 0.0 0
M  V30 3 C 2.598 -0.75 0.0 0
M  V30 4 C 5.1961 -0.75 0.0 0
M  V30 5 N 2.598 -2.25 0.0 0
M  V30 6 C 1.299 0.0 0.0 0
M  V30 7 C 5.1961 -2.25 0.0 0
M  V30 8 C 6.4951 0.0 0.0 0
M  V30 9 N 3.8971 -3.0 0.0 0
M  V30 10 O 1.299 1.5 0.0 0
M  V30 11 O 0.0 -0.75 0.0 0 CHG=-1
M  V30 12 C 6.4951 -3.0 0.0 0
M  V30 13 C 7.7942 -0.7499 0.0 0
M  V30 14 C 3.8971 -4.5 0.0 0
M  V30 15 C 7.7942 -2.2499 0.0 0
M  V30 16 O 9.2208 -0.2864 0.0 0
M  V30 17 C 5.1961 -5.25 0.0 0
M  V30 18 O 9.2208 -2.7135 0.0 0
M  V30 19 C 10.1024 -1.4999 0.0 0
M  V30 END ATOM
M  V30 BEGIN BOND
M  V30 1 2 1 2
M  V30 2 1 2 3
M  V30 3 1 2 4
M  V30 4 2 3 5
M  V30 5 1 3 6
M  V30 6 2 4 7
M  V30 7 1 4 8
M  V30 8 1 5 9
M  V30 9 2 6 10
M  V30 10 1 6 11
M  V30 11 1 7 12
M  V30 12 2 8 13
M  V30 13 1 9 14
M  V30 14 2 12 15
M  V30 15 1 13 16
M  V30 16 1 14 17
M  V30 17 1 15 18
M  V30 18 1 16 19
M  V30 19 1 7 9
M  V30 20 1 13 15
M  V30 21 1 18 19
M  V30 END BOND
M  V30 END CTAB
M  END
>  <Molecule Name>


>  <status>
DISCONTINUED

>  <cas>
28657-80-9

>  <name>
CINOXACIN

>  <ID>
483

>  <Smiles>
CCN(c1c2cc3OCOc3c1)N=C(C([O-])=O)C2=O

$$$$

Actelion Java MolfileCreator 2.0

  0  0  0  0  0  0              0 V3000
M  V30 BEGIN CTAB
M  V30 COUNTS 20 21 0 0 0
M  V30 BEGIN ATOM
M  V30 1 O 4.3301 -4.9999 0.0 0
M  V30 2 N 5.1961 -4.4999 0.0 0 CHG=1
M  V30 3 O 6.0621 -5.0 0.0 0 CHG=-1
M  V30 4 C 5.1961 -3.4999 0.0 0
M  V30 5 C 6.0621 -3.0 0.0 0
M  V30 6 C 4.3301 -2.9999 0.0 0
M  V30 7 C 6.0621 -1.9999 0.0 0
M  V30 8 C 6.9282 -3.5 0.0 0
M  V30 9 C 4.3301 -2.0 0.0 0
M  V30 10 C 5.1961 -1.5 0.0 0
M  V30 11 O 7.7942 -3.0 0.0 0
M  V30 12 N 3.4641 -1.5 0.0 0
M  V30 13 C 5.1961 -0.5 0.0 0
M  V30 14 C 3.4641 -0.5 0.0 0 CFG=2
M  V30 15 C 4.3301 0.0 0.0 0
M  V30 16 C 2.598 0.0 0.0 0
M  V30 17 N 1.732 -0.5 0.0 0
M  V30 18 C 0.866 0.0 0.0 0
M  V30 19 C 0.866 1.0 0.0 0
M  V30 20 C 0.0 -0.5 0.0 0
M  V30 END ATOM
M  V30 BEGIN BOND
M  V30 1 2 1 2
M  V30 2 1 2 3
M  V30 3 1 2 4
M  V30 4 2 4 5
M  V30 5 1 4 6
M  V30 6 1 5 7
M  V30 7 1 5 8
M  V30 8 2 6 9
M  V30 9 2 7 10
M  V30 10 1 8 11
M  V30 11 1 9 12
M  V30 12 1 10 13
M  V30 13 1 14 12
M  V30 14 1 13 15
M  V30 15 1 14 16 CFG=1
M  V30 16 1 16 17
M  V30 17 1 17 18
M  V30 18 1 18 19
M  V30 19 1 18 20
M  V30 20 1 9 10
M  V30 21 1 14 15
M  V30 END BOND
M  V30 BEGIN COLLECTION
M  V30 MDLV30/STERAC1 ATOMS=(1 14)
M  V30 END COLLECTION
M  V30 END CTAB
M  END
>  <Molecule Name>


>  <status>
DISCONTINUED

>  <cas>
21738-42-1

>  <name>
OXAMNIQUINE

>  <ID>
484

>  <Smiles>
CC(C)NCC1Nc2cc([N+]([O-])=O)c(CO)cc2CC1

$$$$

Actelion Java MolfileCreator 2.0

  0  0  0  0  0  0              0 V3000
M  V30 BEGIN CTAB
M  V30 COUNTS 10 9 0 0 0
M  V30 BEGIN ATOM
M  V30 1 O 3.4641 1.5 0.0 0
M  V30 2 C 2.598 1.0 0.0 0
M  V30 3 O 1.732 1.5 0.0 0 CHG=-1
M  V30 4 C 2.598 0.0 0.0 0
M  V30 5 C 3.4641 -0.5 0.0 0
M  V30 6 C 1.732 -0.5 0.0 0
M  V30 7 C 4.3301 0.0 0.0 0
M  V30 8 C 0.866 0.0 0.0 0
M  V30 9 C 5.1961 -0.5 0.0 0
M  V30 10 C 0.0 -0.5 0.0 0
M  V30 END ATOM
M  V30 BEGIN BOND
M  V30 1 2 1 2
M  V30 2 1 2 3
M  V30 3 1 2 4
M  V30 4 1 4 5
M  V30 5 1 4 6
M  V30 6 1 5 7
M  V30 7 1 6 8
M  V30 8 1 7 9
M  V30 9 1 8 10
M  V30 END BOND
M  V30 END CTAB
M  END
>  <Molecule Name>


>  <status>
-

>  <cas>
99-66-1

>  <name>
VALPROIC ACID

>  <ID>
485

>  <Smiles>
CCCC(CCC)C([O-])=O

$$$$

Actelion Java MolfileCreator 2.0

  0  0  0  0  0  0              0 V3000
M  V30 BEGIN CTAB
M  V30 COUNTS 15 16 0 0 0
M  V30 BEGIN ATOM
M  V30 1 O 5.3529 -2.2417 0.0 0
M  V30 2 C 6.8201 -2.5536 0.0 0
M  V30 3 C 5.1961 -0.75 0.0 0 CFG=2
M  V30 4 O 7.5701 -1.2546 0.0 0
M  V30 5 C 5.9384 -3.7671 0.0 0
M  V30 6 C 8.3119 -2.7104 0.0 0
M  V30 7 C 6.5664 -0.1398 0.0 0
M  V30 8 C 3.8971 0.0 0.0 0
M  V30 9 C 6.5485 -5.1374 0.0 0
M  V30 10 C 8.922 -4.0807 0.0 0
M  V30 11 N 2.598 -0.75 0.0 0
M  V30 12 C 8.0403 -5.2942 0.0 0
M  V30 13 C 1.299 0.0 0.0 0
M  V30 14 N 1.299 1.5 0.0 0
M  V30 15 N 0.0 -0.75 0.0 0
M  V30 END ATOM
M  V30 BEGIN BOND
M  V30 1 1 1 2
M  V30 2 1 3 1
M  V30 3 1 2 4
M  V30 4 1 2 5
M  V30 5 1 2 6
M  V30 6 1 3 7
M  V30 7 1 3 8 CFG=1
M  V30 8 1 5 9
M  V30 9 1 6 10
M  V30 10 1 8 11
M  V30 11 1 9 12
M  V30 12 2 11 13
M  V30 13 1 13 14
M  V30 14 1 13 15
M  V30 15 1 4 7
M  V30 16 1 10 12
M  V30 END BOND
M  V30 BEGIN COLLECTION
M  V30 MDLV30/STERAC1 ATOMS=(1 3)
M  V30 END COLLECTION
M  V30 END CTAB
M  END
>  <Molecule Name>


>  <status>
DISCONTINUED

>  <cas>
40580-59-4

>  <name>
GUANADREL

>  <ID>
486

>  <Smiles>
NC(N)=NCC1OC2(CCCCC2)OC1

$$$$

Actelion Java MolfileCreator 2.0

  0  0  0  0  0  0              0 V3000
M  V30 BEGIN CTAB
M  V30 COUNTS 36 41 0 0 0
M  V30 BEGIN ATOM
M  V30 1 F 2.141 3.1092 0.0 0
M  V30 2 C 3.6438 3.456 0.0 0 CFG=2
M  V30 3 C 2.7556 4.6785 0.0 0 CFG=2
M  V30 4 C 3.0292 2.0756 0.0 0 CFG=1
M  V30 5 C 5.1466 3.614 0.0 0 CFG=2
M  V30 6 C 3.3702 6.0589 0.0 0
M  V30 7 C 1.2528 4.5206 0.0 0
M  V30 8 C 2.141 3.6758 0.0 0
M  V30 9 O 1.5264 1.9176 0.0 0
M  V30 10 C 3.9173 0.8531 0.0 0
M  V30 11 C 6.0348 2.3915 0.0 0 CFG=1
M  V30 12 C 5.7612 4.9944 0.0 0
M  V30 13 C 2.482 7.2814 0.0 0
M  V30 14 C 4.873 6.2169 0.0 0
M  V30 15 C 0.3646 5.743 0.0 0
M  V30 16 C 5.4201 1.0111 0.0 0 CFG=1
M  V30 17 C 7.5375 2.2335 0.0 0
M  V30 18 C 0.9792 7.1235 0.0 0
M  V30 19 C 6.5431 0.0 0.0 0 CFG=1
M  V30 20 C 4.9343 -0.2561 0.0 0
M  V30 21 C 7.8517 0.7555 0.0 0 CFG=2
M  V30 22 O 0.091 8.346 0.0 0
M  V30 23 O 6.8573 -1.478 0.0 0
M  V30 24 C 5.279 -0.8296 0.0 0
M  V30 25 O 8.9747 -0.2555 0.0 0
M  V30 26 C 8.3601 -1.636 0.0 0
M  V30 27 O 3.9258 0.0 0.0 0
M  V30 28 C 5.2345 -2.2666 0.0 0
M  V30 29 C 7.7454 -3.0164 0.0 0
M  V30 30 C 9.8628 -1.7939 0.0 0
M  V30 31 O 3.9258 -3.0221 0.0 0
M  V30 32 C 8.8684 -4.0275 0.0 0
M  V30 33 C 10.177 -3.272 0.0 0
M  V30 34 C 3.9258 -4.5332 0.0 0
M  V30 35 O 5.2345 -5.2887 0.0 0
M  V30 36 C 2.6172 -5.2887 0.0 0
M  V30 END ATOM
M  V30 BEGIN BOND
M  V30 1 1 2 1 CFG=1
M  V30 2 1 3 2
M  V30 3 1 4 2
M  V30 4 1 5 2
M  V30 5 1 3 6
M  V30 6 1 3 7
M  V30 7 1 3 8 CFG=3
M  V30 8 1 4 9 CFG=3
M  V30 9 1 4 10
M  V30 10 1 11 5
M  V30 11 1 5 12 CFG=1
M  V30 12 2 6 13
M  V30 13 1 6 14
M  V30 14 2 7 15
M  V30 15 1 16 10
M  V30 16 1 11 17 CFG=3
M  V30 17 1 13 18
M  V30 18 1 19 16
M  V30 19 1 16 20 CFG=3
M  V30 20 1 21 17
M  V30 21 2 18 22
M  V30 22 1 19 23
M  V30 23 1 19 24 CFG=3
M  V30 24 1 21 25 CFG=1
M  V30 25 1 23 26
M  V30 26 2 24 27
M  V30 27 1 24 28
M  V30 28 1 26 29
M  V30 29 1 26 30
M  V30 30 1 28 31
M  V30 31 1 29 32
M  V30 32 1 30 33
M  V30 33 1 31 34
M  V30 34 2 34 35
M  V30 35 1 34 36
M  V30 36 1 11 16
M  V30 37 1 12 14
M  V30 38 1 15 18
M  V30 39 1 19 21
M  V30 40 1 25 26
M  V30 41 1 32 33
M  V30 END BOND
M  V30 BEGIN COLLECTION
M  V30 MDLV30/STERAC1 ATOMS=(8 2 3 4 5 11 16 19 21)
M  V30 END COLLECTION
M  V30 END CTAB
M  END
>  <Molecule Name>


>  <status>
-

>  <cas>
51022-69-6

>  <name>
AMCINONIDE

>  <ID>
487

>  <Smiles>
C[C@@]1(C[C@@H]2O)[C@]3(C(COC(C)=O)=O)OC4(CCCC4)O[C@@H]3C[C@H]1[C@H](CCC([C@]1(C)C=C3)=CC3=O)[C@@]12F

$$$$

Actelion Java MolfileCreator 2.0

  0  0  0  0  0  0              0 V3000
M  V30 BEGIN CTAB
M  V30 COUNTS 23 25 0 0 0
M  V30 BEGIN ATOM
M  V30 1 S 5.1961 2.25 0.0 0
M  V30 2 O 5.9461 3.549 0.0 0
M  V30 3 O 4.4461 3.549 0.0 0
M  V30 4 N 3.8971 1.5 0.0 0
M  V30 5 C 6.4952 1.5 0.0 0
M  V30 6 C 3.8971 0.0 0.0 0
M  V30 7 C 2.598 2.25 0.0 0
M  V30 8 C 6.4952 0.0 0.0 0
M  V30 9 C 7.7942 2.25 0.0 0
M  V30 10 C 5.1961 -0.75 0.0 0
M  V30 11 C 2.598 -0.75 0.0 0
M  V30 12 C 7.7942 -0.75 0.0 0
M  V30 13 C 9.0932 1.5 0.0 0
M  V30 14 O 5.1961 -2.25 0.0 0
M  V30 15 O 2.598 -2.25 0.0 0
M  V30 16 N 1.299 0.0 0.0 0
M  V30 17 C 9.0932 0.0 0.0 0
M  V30 18 C 0.0 -0.75 0.0 0
M  V30 19 N -1.299 0.0 0.0 0
M  V30 20 C 0.0 -2.25 0.0 0
M  V30 21 C -2.598 -0.75 0.0 0
M  V30 22 C -1.299 -3.0 0.0 0
M  V30 23 C -2.598 -2.25 0.0 0
M  V30 END ATOM
M  V30 BEGIN BOND
M  V30 1 2 1 2
M  V30 2 2 1 3
M  V30 3 1 1 4
M  V30 4 1 1 5
M  V30 5 1 4 6
M  V30 6 1 4 7
M  V30 7 2 5 8
M  V30 8 1 5 9
M  V30 9 1 6 10
M  V30 10 2 6 11
M  V30 11 1 8 12
M  V30 12 2 9 13
M  V30 13 2 10 14
M  V30 14 1 11 15
M  V30 15 1 11 16
M  V30 16 2 12 17
M  V30 17 1 16 18
M  V30 18 2 18 19
M  V30 19 1 18 20
M  V30 20 1 19 21
M  V30 21 2 20 22
M  V30 22 2 21 23
M  V30 23 1 8 10
M  V30 24 1 13 17
M  V30 25 1 22 23
M  V30 END BOND
M  V30 END CTAB
M  END
>  <Molecule Name>


>  <status>
-

>  <cas>
36322-90-4

>  <name>
PIROXICAM

>  <ID>
488

>  <Smiles>
CN(/C(/C(c1c2cccc1)=O)=C(\Nc1ncccc1)/O)S2(=O)=O

$$$$

Actelion Java MolfileCreator 2.0

  0  0  0  0  0  0              0 V3000
M  V30 BEGIN CTAB
M  V30 COUNTS 31 35 0 0 0
M  V30 BEGIN ATOM
M  V30 1 F 2.8574 7.5631 0.0 0
M  V30 2 C 2.2456 6.1889 0.0 0 CFG=2
M  V30 3 C 0.7495 6.0317 0.0 0
M  V30 4 C 3.1298 4.9719 0.0 0
M  V30 5 C -0.1345 7.2487 0.0 0
M  V30 6 C 0.1377 4.6575 0.0 0 CFG=2
M  V30 7 C 2.5179 3.5977 0.0 0 CFG=2
M  V30 8 C -1.6306 7.0914 0.0 0
M  V30 9 C -1.3582 4.5002 0.0 0
M  V30 10 C 1.0219 3.4405 0.0 0 CFG=2
M  V30 11 C -0.474 3.2832 0.0 0
M  V30 12 C 3.4021 2.3807 0.0 0 CFG=1
M  V30 13 O -2.5148 8.3084 0.0 0
M  V30 14 C -2.2424 5.7172 0.0 0
M  V30 15 C 0.4101 2.0662 0.0 0 CFG=1
M  V30 16 C 2.7903 1.0065 0.0 0 CFG=2
M  V30 17 C 4.8982 2.2235 0.0 0
M  V30 18 O -1.0859 1.909 0.0 0
M  V30 19 C 1.2942 0.8493 0.0 0
M  V30 20 C 3.9082 0.0 0.0 0 CFG=1
M  V30 21 C 2.3067 -0.2549 0.0 0
M  V30 22 C 5.2109 0.7521 0.0 0 CFG=2
M  V30 23 O 4.2209 -1.4714 0.0 0
M  V30 24 C 2.6498 -0.8259 0.0 0
M  V30 25 O 6.3288 -0.2544 0.0 0
M  V30 26 C 5.717 -1.6286 0.0 0
M  V30 27 O 2.6054 -2.2564 0.0 0
M  V30 28 C 1.3027 0.0 0.0 0
M  V30 29 C 5.7169 -3.1328 0.0 0
M  V30 30 C 7.0197 -2.3807 0.0 0
M  V30 31 O 0.0 -0.7521 0.0 0
M  V30 END ATOM
M  V30 BEGIN BOND
M  V30 1 1 2 1 CFG=1
M  V30 2 1 2 3
M  V30 3 1 2 4
M  V30 4 2 3 5
M  V30 5 1 6 3
M  V30 6 1 7 4 CFG=1
M  V30 7 1 5 8
M  V30 8 1 6 9
M  V30 9 1 10 6
M  V30 10 1 6 11 CFG=3
M  V30 11 1 12 7
M  V30 12 2 8 13
M  V30 13 1 8 14
M  V30 14 1 10 15 CFG=3
M  V30 15 1 16 12
M  V30 16 1 12 17 CFG=3
M  V30 17 1 15 18 CFG=3
M  V30 18 1 15 19
M  V30 19 1 20 16
M  V30 20 1 16 21 CFG=3
M  V30 21 1 22 17
M  V30 22 1 20 23
M  V30 23 1 20 24 CFG=3
M  V30 24 1 22 25 CFG=1
M  V30 25 1 23 26
M  V30 26 2 24 27
M  V30 27 1 24 28
M  V30 28 1 26 29
M  V30 29 1 26 30
M  V30 30 1 28 31
M  V30 31 1 10 7
M  V30 32 2 9 14
M  V30 33 1 16 19
M  V30 34 1 20 22
M  V30 35 1 25 26
M  V30 END BOND
M  V30 BEGIN COLLECTION
M  V30 MDLV30/STERAC1 ATOMS=(9 2 6 7 10 12 15 16 20 22)
M  V30 END COLLECTION
M  V30 END CTAB
M  END
>  <Molecule Name>


>  <status>
-

>  <cas>
3385-03-3

>  <name>
FLUNISOLIDE

>  <ID>
489

>  <Smiles>
CC(C)(O[C@@H]1C[C@@H]([C@H](C[C@@H]2F)[C@H]3[C@@](C)(C=C4)C2=CC4=O)[C@]2(C)C[C@@H]3O)O[C@@]12C(CO)=O

$$$$

Actelion Java MolfileCreator 2.0

  0  0  0  0  0  0              0 V3000
M  V30 BEGIN CTAB
M  V30 COUNTS 15 16 0 0 0
M  V30 BEGIN ATOM
M  V30 1 O 1.299 0.0 0.0 0
M  V30 2 N 0.0 -0.75 0.0 0
M  V30 3 C -1.299 0.0 0.0 0
M  V30 4 C 0.0 -2.25 0.0 0
M  V30 5 N -2.598 -0.7499 0.0 0
M  V30 6 N -1.299 1.5 0.0 0
M  V30 7 N 1.299 -3.0 0.0 0
M  V30 8 C -1.299 -2.9999 0.0 0
M  V30 9 C -2.598 -2.2499 0.0 0
M  V30 10 N -3.8971 -2.9999 0.0 0
M  V30 11 C -5.1961 -2.2499 0.0 0
M  V30 12 C -3.8971 -4.4999 0.0 0
M  V30 13 C -6.4951 -2.9999 0.0 0
M  V30 14 C -5.1961 -5.2499 0.0 0
M  V30 15 C -6.4951 -4.4999 0.0 0
M  V30 END ATOM
M  V30 BEGIN BOND
M  V30 1 1 1 2
M  V30 2 1 2 3
M  V30 3 1 2 4
M  V30 4 1 3 5
M  V30 5 2 3 6
M  V30 6 1 4 7
M  V30 7 2 4 8
M  V30 8 2 5 9
M  V30 9 1 9 10
M  V30 10 1 10 11
M  V30 11 1 10 12
M  V30 12 1 11 13
M  V30 13 1 12 14
M  V30 14 1 13 15
M  V30 15 1 8 9
M  V30 16 1 14 15
M  V30 END BOND
M  V30 END CTAB
M  END
>  <Molecule Name>


>  <status>
-

>  <cas>
38304-91-5

>  <name>
MINOXIDIL

>  <ID>
490

>  <Smiles>
NC(N1O)=CC(N2CCCCC2)=NC1=N

$$$$

Actelion Java MolfileCreator 2.0

  0  0  0  0  0  0              0 V3000
M  V30 BEGIN CTAB
M  V30 COUNTS 21 23 0 0 0
M  V30 BEGIN ATOM
M  V30 1 Cl 0.866 0.0 0.0 0
M  V30 2 C 0.0 -0.5 0.0 0
M  V30 3 C -0.866 0.0 0.0 0
M  V30 4 C 0.0 -1.4999 0.0 0
M  V30 5 C -1.732 -0.4999 0.0 0
M  V30 6 C -0.866 -1.9999 0.0 0
M  V30 7 C -2.5138 0.1234 0.0 0
M  V30 8 C -1.732 -1.4999 0.0 0
M  V30 9 N -3.4888 -0.099 0.0 0
M  V30 10 C -2.2913 1.0984 0.0 0
M  V30 11 N -2.5138 -2.1234 0.0 0
M  V30 12 C -3.9226 -0.9999 0.0 0 CFG=2
M  V30 13 C -1.3357 1.3931 0.0 0
M  V30 14 C -3.0244 1.7785 0.0 0
M  V30 15 C -3.4888 -1.9009 0.0 0
M  V30 16 C -2.2913 -3.0984 0.0 0
M  V30 17 O -4.9226 -0.9999 0.0 0
M  V30 18 C -1.1132 2.3681 0.0 0
M  V30 19 C -2.8018 2.7535 0.0 0
M  V30 20 O -4.1123 -2.6828 0.0 0
M  V30 21 C -1.8463 3.0482 0.0 0
M  V30 END ATOM
M  V30 BEGIN BOND
M  V30 1 1 1 2
M  V30 2 2 2 3
M  V30 3 1 2 4
M  V30 4 1 3 5
M  V30 5 2 4 6
M  V30 6 1 5 7
M  V30 7 2 5 8
M  V30 8 2 7 9
M  V30 9 1 7 10
M  V30 10 1 8 11
M  V30 11 1 12 9
M  V30 12 2 10 13
M  V30 13 1 10 14
M  V30 14 1 11 15
M  V30 15 1 11 16
M  V30 16 1 12 17 CFG=3
M  V30 17 1 13 18
M  V30 18 2 14 19
M  V30 19 2 15 20
M  V30 20 2 18 21
M  V30 21 1 6 8
M  V30 22 1 12 15
M  V30 23 1 19 21
M  V30 END BOND
M  V30 BEGIN COLLECTION
M  V30 MDLV30/STERAC1 ATOMS=(1 12)
M  V30 END COLLECTION
M  V30 END CTAB
M  END
>  <Molecule Name>


>  <status>
-

>  <cas>
846-50-4

>  <name>
TEMAZEPAM

>  <ID>
491

>  <Smiles>
CN(c(ccc(Cl)c1)c1C(c1ccccc1)=NC1O)C1=O

$$$$

Actelion Java MolfileCreator 2.0

  0  0  0  0  0  0              0 V3000
M  V30 BEGIN CTAB
M  V30 COUNTS 19 19 0 0 0
M  V30 BEGIN ATOM
M  V30 1 O 5.1961 1.5 0.0 0
M  V30 2 C 6.0621 1.0 0.0 0
M  V30 3 C 4.3301 1.0 0.0 0
M  V30 4 C 6.0621 0.0 0.0 0
M  V30 5 C 6.9282 1.4999 0.0 0
M  V30 6 C 3.4641 1.5 0.0 0
M  V30 7 O 5.1961 -0.5 0.0 0
M  V30 8 C 6.9282 -0.5 0.0 0
M  V30 9 C 7.7942 1.0 0.0 0
M  V30 10 C 2.598 1.0 0.0 0
M  V30 11 C 4.3301 0.0 0.0 0
M  V30 12 C 7.7942 0.0 0.0 0
M  V30 13 C 3.4641 -0.5 0.0 0 CFG=1
M  V30 14 O 3.4641 -1.5 0.0 0
M  V30 15 C 2.598 0.0 0.0 0
M  V30 16 N 1.732 -0.5 0.0 0
M  V30 17 C 0.866 0.0 0.0 0
M  V30 18 C 0.866 1.0 0.0 0
M  V30 19 C 0.0 -0.5 0.0 0
M  V30 END ATOM
M  V30 BEGIN BOND
M  V30 1 1 1 2
M  V30 2 1 1 3
M  V30 3 2 2 4
M  V30 4 1 2 5
M  V30 5 1 3 6
M  V30 6 1 4 7
M  V30 7 1 4 8
M  V30 8 2 5 9
M  V30 9 2 6 10
M  V30 10 1 7 11
M  V30 11 2 8 12
M  V30 12 1 13 11
M  V30 13 1 13 14 CFG=1
M  V30 14 1 13 15
M  V30 15 1 15 16
M  V30 16 1 16 17
M  V30 17 1 17 18
M  V30 18 1 17 19
M  V30 19 1 9 12
M  V30 END BOND
M  V30 BEGIN COLLECTION
M  V30 MDLV30/STERAC1 ATOMS=(1 13)
M  V30 END COLLECTION
M  V30 END CTAB
M  END
>  <Molecule Name>


>  <status>
DISCONTINUED

>  <cas>
6452-71-7

>  <name>
OXPRENOLOL

>  <ID>
492

>  <Smiles>
CC(C)NCC(COc(cccc1)c1OCC=C)O

$$$$

Actelion Java MolfileCreator 2.0

  0  0  0  0  0  0              0 V3000
M  V30 BEGIN CTAB
M  V30 COUNTS 15 15 0 0 0
M  V30 BEGIN ATOM
M  V30 1 Cl 9.0932 0.0 0.0 0
M  V30 2 C 7.7942 -0.75 0.0 0
M  V30 3 N 6.4951 0.0 0.0 0
M  V30 4 C 7.7942 -2.2499 0.0 0
M  V30 5 C 5.1961 -0.75 0.0 0
M  V30 6 N 6.4951 -3.0 0.0 0
M  V30 7 N 9.0932 -2.9999 0.0 0
M  V30 8 C 5.1961 -2.2499 0.0 0
M  V30 9 C 3.8971 0.0 0.0 0
M  V30 10 N 3.8971 -2.9999 0.0 0
M  V30 11 O 3.8971 1.5 0.0 0
M  V30 12 N 2.598 -0.75 0.0 0
M  V30 13 C 1.299 0.0 0.0 0
M  V30 14 N 1.299 1.5 0.0 0 CHG=1
M  V30 15 N 0.0 -0.75 0.0 0
M  V30 END ATOM
M  V30 BEGIN BOND
M  V30 1 1 1 2
M  V30 2 2 2 3
M  V30 3 1 2 4
M  V30 4 1 3 5
M  V30 5 2 4 6
M  V30 6 1 4 7
M  V30 7 2 5 8
M  V30 8 1 5 9
M  V30 9 1 8 10
M  V30 10 2 9 11
M  V30 11 1 9 12
M  V30 12 1 12 13
M  V30 13 2 13 14
M  V30 14 1 13 15
M  V30 15 1 6 8
M  V30 END BOND
M  V30 END CTAB
M  END
>  <Molecule Name>


>  <status>
-

>  <cas>
2609-46-3

>  <name>
AMILORIDE

>  <ID>
493

>  <Smiles>
NC(NC(c(nc1Cl)c(N)nc1N)=O)=[NH2+]

$$$$

Actelion Java MolfileCreator 2.0

  0  0  0  0  0  0              0 V3000
M  V30 BEGIN CTAB
M  V30 COUNTS 17 18 0 0 0
M  V30 BEGIN ATOM
M  V30 1 O -0.866 1.0 0.0 0
M  V30 2 C -0.866 0.0 0.0 0
M  V30 3 N -1.732 -0.4999 0.0 0
M  V30 4 C 0.0 -0.5 0.0 0 CFG=2
M  V30 5 C -1.732 -1.4999 0.0 0
M  V30 6 C 0.866 -1.0 0.0 0
M  V30 7 C 0.0 -1.5 0.0 0
M  V30 8 C 0.866 0.0 0.0 0
M  V30 9 O -2.598 -1.9999 0.0 0
M  V30 10 C -0.866 -1.9999 0.0 0
M  V30 11 C 0.866 -2.0 0.0 0
M  V30 12 C 1.732 -0.5 0.0 0
M  V30 13 C 0.866 0.9999 0.0 0
M  V30 14 C 1.732 -2.5 0.0 0
M  V30 15 C 2.598 -1.0 0.0 0
M  V30 16 C 2.598 -2.0 0.0 0
M  V30 17 N 3.4641 -2.5 0.0 0
M  V30 END ATOM
M  V30 BEGIN BOND
M  V30 1 2 1 2
M  V30 2 1 2 3
M  V30 3 1 4 2
M  V30 4 1 3 5
M  V30 5 1 4 6 CFG=3
M  V30 6 1 4 7
M  V30 7 1 4 8
M  V30 8 2 5 9
M  V30 9 1 5 10
M  V30 10 2 6 11
M  V30 11 1 6 12
M  V30 12 1 8 13
M  V30 13 1 11 14
M  V30 14 2 12 15
M  V30 15 2 14 16
M  V30 16 1 16 17
M  V30 17 1 7 10
M  V30 18 1 15 16
M  V30 END BOND
M  V30 BEGIN COLLECTION
M  V30 MDLV30/STERAC1 ATOMS=(1 4)
M  V30 END COLLECTION
M  V30 END CTAB
M  END
>  <Molecule Name>


>  <status>
DISCONTINUED

>  <cas>
125-84-8

>  <name>
AMINOGLUTETHIMIDE

>  <ID>
494

>  <Smiles>
CCC(CCC(N1)=O)(c(cc2)ccc2N)C1=O

$$$$

Actelion Java MolfileCreator 2.0

  0  0  0  0  0  0              0 V3000
M  V30 BEGIN CTAB
M  V30 COUNTS 26 29 0 0 0
M  V30 BEGIN ATOM
M  V30 1 Cl 8.6602 -1.4999 0.0 0
M  V30 2 C 7.7942 -2.0 0.0 0
M  V30 3 C 6.9282 -1.4999 0.0 0
M  V30 4 C 7.7942 -3.0 0.0 0
M  V30 5 C 6.0621 -2.0 0.0 0
M  V30 6 C 6.9282 -3.4999 0.0 0
M  V30 7 N 5.1961 -1.4999 0.0 0
M  V30 8 C 6.0621 -3.0 0.0 0
M  V30 9 C 5.1961 -0.5 0.0 0
M  V30 10 C 4.3301 -1.9999 0.0 0
M  V30 11 C 4.3301 0.0 0.0 0
M  V30 12 C 3.4641 -1.5 0.0 0
M  V30 13 N 3.4641 -0.5 0.0 0
M  V30 14 C 2.598 0.0 0.0 0
M  V30 15 C 1.732 -0.5 0.0 0
M  V30 16 C 0.866 0.0 0.0 0
M  V30 17 N 0.0 -0.5 0.0 0
M  V30 18 N -0.9135 -0.0932 0.0 0
M  V30 19 C -0.1045 -1.4945 0.0 0
M  V30 20 C -1.5826 -0.8364 0.0 0
M  V30 21 O 0.6386 -2.1636 0.0 0
M  V30 22 N -1.0826 -1.7024 0.0 0
M  V30 23 C -2.5826 -0.8364 0.0 0
M  V30 24 C -1.5826 -2.5684 0.0 0
M  V30 25 C -3.0826 -1.7024 0.0 0
M  V30 26 C -2.5826 -2.5684 0.0 0
M  V30 END ATOM
M  V30 BEGIN BOND
M  V30 1 1 1 2
M  V30 2 2 2 3
M  V30 3 1 2 4
M  V30 4 1 3 5
M  V30 5 2 4 6
M  V30 6 1 5 7
M  V30 7 2 5 8
M  V30 8 1 7 9
M  V30 9 1 7 10
M  V30 10 1 9 11
M  V30 11 1 10 12
M  V30 12 1 11 13
M  V30 13 1 13 14
M  V30 14 1 14 15
M  V30 15 1 15 16
M  V30 16 1 16 17
M  V30 17 1 17 18
M  V30 18 1 17 19
M  V30 19 2 18 20
M  V30 20 2 19 21
M  V30 21 1 19 22
M  V30 22 1 20 23
M  V30 23 1 22 24
M  V30 24 2 23 25
M  V30 25 2 24 26
M  V30 26 1 6 8
M  V30 27 1 12 13
M  V30 28 1 20 22
M  V30 29 1 25 26
M  V30 END BOND
M  V30 END CTAB
M  END
>  <Molecule Name>


>  <status>
-

>  <cas>
19794-93-5

>  <name>
TRAZODONE

>  <ID>
495

>  <Smiles>
O=C1N(C=CC=C2)C2=NN1CCCN(CC1)CCN1c1cccc(Cl)c1

$$$$

Actelion Java MolfileCreator 2.0

  0  0  0  0  0  0              0 V3000
M  V30 BEGIN CTAB
M  V30 COUNTS 25 26 0 0 0
M  V30 BEGIN ATOM
M  V30 1 S 5.1961 2.4999 0.0 0
M  V30 2 O 6.1961 2.4999 0.0 0
M  V30 3 O 4.1961 2.5 0.0 0
M  V30 4 N 5.1961 3.4999 0.0 0
M  V30 5 C 5.1961 1.4999 0.0 0
M  V30 6 C 4.3301 1.0 0.0 0
M  V30 7 C 6.0621 0.9999 0.0 0
M  V30 8 O 3.4641 1.5 0.0 0
M  V30 9 C 4.3301 0.0 0.0 0
M  V30 10 C 6.0621 0.0 0.0 0
M  V30 11 C 2.598 1.0 0.0 0
M  V30 12 N 3.4641 -0.5 0.0 0
M  V30 13 C 5.1961 -0.5 0.0 0
M  V30 14 C 6.9282 -0.5 0.0 0
M  V30 15 C 1.732 1.5 0.0 0
M  V30 16 C 2.598 0.0 0.0 0
M  V30 17 C 3.4641 -1.5 0.0 0
M  V30 18 O 6.9282 -1.5 0.0 0
M  V30 19 O 7.7942 0.0 0.0 0 CHG=-1
M  V30 20 C 0.866 1.0 0.0 0
M  V30 21 C 1.732 -0.4999 0.0 0
M  V30 22 C 2.598 -1.9999 0.0 0
M  V30 23 C 0.866 0.0 0.0 0
M  V30 24 C 2.598 -2.9999 0.0 0
M  V30 25 C 1.732 -3.5 0.0 0
M  V30 END ATOM
M  V30 BEGIN BOND
M  V30 1 2 1 2
M  V30 2 2 1 3
M  V30 3 1 1 4
M  V30 4 1 1 5
M  V30 5 2 5 6
M  V30 6 1 5 7
M  V30 7 1 6 8
M  V30 8 1 6 9
M  V30 9 2 7 10
M  V30 10 1 8 11
M  V30 11 1 9 12
M  V30 12 2 9 13
M  V30 13 1 10 14
M  V30 14 2 11 15
M  V30 15 1 11 16
M  V30 16 1 12 17
M  V30 17 2 14 18
M  V30 18 1 14 19
M  V30 19 1 15 20
M  V30 20 2 16 21
M  V30 21 1 17 22
M  V30 22 2 20 23
M  V30 23 1 22 24
M  V30 24 1 24 25
M  V30 25 1 10 13
M  V30 26 1 21 23
M  V30 END BOND
M  V30 END CTAB
M  END
>  <Molecule Name>


>  <status>
-

>  <cas>
28395-03-1

>  <name>
BUMETANIDE

>  <ID>
496

>  <Smiles>
CCCCNc1cc(C([O-])=O)cc(S(N)(=O)=O)c1Oc1ccccc1

$$$$

Actelion Java MolfileCreator 2.0

  0  0  0  0  0  0              0 V3000
M  V30 BEGIN CTAB
M  V30 COUNTS 18 19 0 0 0
M  V30 BEGIN ATOM
M  V30 1 O 3.4641 -0.4999 0.0 0
M  V30 2 C 2.598 0.0 0.0 0
M  V30 3 O 1.732 -0.4999 0.0 0
M  V30 4 C 2.598 1.0 0.0 0
M  V30 5 C 0.866 0.0 0.0 0
M  V30 6 N 3.407 1.5877 0.0 0
M  V30 7 C 1.789 1.5877 0.0 0
M  V30 8 C 0.0 -0.5 0.0 0
M  V30 9 C 3.098 2.5388 0.0 0
M  V30 10 C 4.3581 1.2787 0.0 0 CFG=2
M  V30 11 N 2.098 2.5388 0.0 0
M  V30 12 C 5.1012 1.9478 0.0 0
M  V30 13 C 4.566 0.3006 0.0 0
M  V30 14 C 4.8933 2.926 0.0 0
M  V30 15 C 6.0523 1.6388 0.0 0
M  V30 16 C 5.6365 3.5951 0.0 0
M  V30 17 C 6.7954 2.308 0.0 0
M  V30 18 C 6.5875 3.2861 0.0 0
M  V30 END ATOM
M  V30 BEGIN BOND
M  V30 1 2 1 2
M  V30 2 1 2 3
M  V30 3 1 2 4
M  V30 4 1 3 5
M  V30 5 1 4 6
M  V30 6 2 4 7
M  V30 7 1 5 8
M  V30 8 1 6 9
M  V30 9 1 10 6 CFG=3
M  V30 10 1 7 11
M  V30 11 1 10 12
M  V30 12 1 10 13
M  V30 13 2 12 14
M  V30 14 1 12 15
M  V30 15 1 14 16
M  V30 16 2 15 17
M  V30 17 2 16 18
M  V30 18 2 9 11
M  V30 19 1 17 18
M  V30 END BOND
M  V30 BEGIN COLLECTION
M  V30 MDLV30/STERAC1 ATOMS=(1 10)
M  V30 END COLLECTION
M  V30 END CTAB
M  END
>  <Molecule Name>


>  <status>
-

>  <cas>
33125-97-2

>  <name>
ETOMIDATE

>  <ID>
497

>  <Smiles>
CCOC(c1cncn1C(C)c1ccccc1)=O

$$$$

Actelion Java MolfileCreator 2.0

  0  0  0  0  0  0              0 V3000
M  V30 BEGIN CTAB
M  V30 COUNTS 25 25 0 0 0
M  V30 BEGIN ATOM
M  V30 1 O 3.8971 -4.5 0.0 0
M  V30 2 C 5.1961 -5.25 0.0 0
M  V30 3 O 6.4951 -4.5 0.0 0
M  V30 4 C 5.1961 -6.75 0.0 0
M  V30 5 C 6.4951 -3.0 0.0 0
M  V30 6 C 3.6961 -6.75 0.0 0
M  V30 7 C 5.1961 -8.25 0.0 0
M  V30 8 C 6.6961 -6.75 0.0 0
M  V30 9 C 7.7942 -2.25 0.0 0
M  V30 10 C 5.1961 -2.25 0.0 0
M  V30 11 O 9.0932 -3.0 0.0 0
M  V30 12 C 7.7942 -0.75 0.0 0
M  V30 13 C 5.1961 -0.75 0.0 0
M  V30 14 C 10.3923 -2.25 0.0 0
M  V30 15 C 6.4951 0.0 0.0 0
M  V30 16 C 3.8971 0.0 0.0 0 CFG=1
M  V30 17 O 10.3923 -0.75 0.0 0
M  V30 18 C 11.6913 -3.0 0.0 0
M  V30 19 O 3.8971 1.5 0.0 0
M  V30 20 C 2.598 -0.75 0.0 0
M  V30 21 C 10.9413 -4.299 0.0 0
M  V30 22 C 12.9903 -3.75 0.0 0
M  V30 23 C 12.4413 -1.7009 0.0 0
M  V30 24 N 1.299 0.0 0.0 0
M  V30 25 C 0.0 -0.75 0.0 0
M  V30 END ATOM
M  V30 BEGIN BOND
M  V30 1 2 1 2
M  V30 2 1 2 3
M  V30 3 1 2 4
M  V30 4 1 3 5
M  V30 5 1 4 6
M  V30 6 1 4 7
M  V30 7 1 4 8
M  V30 8 2 5 9
M  V30 9 1 5 10
M  V30 10 1 9 11
M  V30 11 1 9 12
M  V30 12 2 10 13
M  V30 13 1 11 14
M  V30 14 2 12 15
M  V30 15 1 16 13
M  V30 16 2 14 17
M  V30 17 1 14 18
M  V30 18 1 16 19 CFG=3
M  V30 19 1 16 20
M  V30 20 1 18 21
M  V30 21 1 18 22
M  V30 22 1 18 23
M  V30 23 1 20 24
M  V30 24 1 24 25
M  V30 25 1 13 15
M  V30 END BOND
M  V30 BEGIN COLLECTION
M  V30 MDLV30/STERAC1 ATOMS=(1 16)
M  V30 END COLLECTION
M  V30 END CTAB
M  END
>  <Molecule Name>


>  <status>
DISCONTINUED

>  <cas>
52365-63-6

>  <name>
DIPIVEFRIN

>  <ID>
498

>  <Smiles>
CC(C)(C)C(Oc(ccc(C(CNC)O)c1)c1OC(C(C)(C)C)=O)=O

$$$$

Actelion Java MolfileCreator 2.0

  0  0  0  0  0  0              0 V3000
M  V30 BEGIN CTAB
M  V30 COUNTS 19 19 0 0 0
M  V30 BEGIN ATOM
M  V30 1 O 10.3923 1.4999 0.0 0
M  V30 2 C 9.5262 0.9999 0.0 0
M  V30 3 N 9.5262 0.0 0.0 0
M  V30 4 C 8.6602 1.4999 0.0 0
M  V30 5 C 7.7942 0.9999 0.0 0
M  V30 6 C 6.9282 1.4999 0.0 0
M  V30 7 C 7.7942 0.0 0.0 0
M  V30 8 C 6.0621 0.9999 0.0 0
M  V30 9 C 6.9282 -0.5 0.0 0
M  V30 10 C 6.0621 0.0 0.0 0
M  V30 11 O 5.1961 -0.5 0.0 0
M  V30 12 C 4.3301 0.0 0.0 0
M  V30 13 C 3.4641 -0.5 0.0 0 CFG=1
M  V30 14 O 3.4641 -1.5 0.0 0
M  V30 15 C 2.598 0.0 0.0 0
M  V30 16 N 1.732 -0.5 0.0 0
M  V30 17 C 0.866 0.0 0.0 0
M  V30 18 C 0.866 1.0 0.0 0
M  V30 19 C 0.0 -0.5 0.0 0
M  V30 END ATOM
M  V30 BEGIN BOND
M  V30 1 2 1 2
M  V30 2 1 2 3
M  V30 3 1 2 4
M  V30 4 1 4 5
M  V30 5 2 5 6
M  V30 6 1 5 7
M  V30 7 1 6 8
M  V30 8 2 7 9
M  V30 9 2 8 10
M  V30 10 1 10 11
M  V30 11 1 11 12
M  V30 12 1 13 12
M  V30 13 1 13 14 CFG=1
M  V30 14 1 13 15
M  V30 15 1 15 16
M  V30 16 1 16 17
M  V30 17 1 17 18
M  V30 18 1 17 19
M  V30 19 1 9 10
M  V30 END BOND
M  V30 BEGIN COLLECTION
M  V30 MDLV30/STERAC1 ATOMS=(1 13)
M  V30 END COLLECTION
M  V30 END CTAB
M  END
>  <Molecule Name>


>  <status>
-

>  <cas>
29122-68-7

>  <name>
ATENOLOL

>  <ID>
499

>  <Smiles>
CC(C)NCC(COc1ccc(CC(N)=O)cc1)O

$$$$

Actelion Java MolfileCreator 2.0

  0  0  0  0  0  0              0 V3000
M  V30 BEGIN CTAB
M  V30 COUNTS 14 14 0 0 0
M  V30 BEGIN ATOM
M  V30 1 O 1.732 -1.5 0.0 0
M  V30 2 C 1.732 -0.5 0.0 0
M  V30 3 N 2.598 0.0 0.0 0
M  V30 4 C 0.866 0.0 0.0 0 CFG=1
M  V30 5 C 3.4641 -0.5 0.0 0
M  V30 6 N 0.866 1.0 0.0 0
M  V30 7 C 0.0 -0.5 0.0 0
M  V30 8 C 3.4641 -1.5 0.0 0
M  V30 9 C 4.3301 0.0 0.0 0
M  V30 10 C 4.3301 -2.0 0.0 0
M  V30 11 C 2.598 -1.9999 0.0 0
M  V30 12 C 5.1961 -0.5 0.0 0
M  V30 13 C 4.3301 0.9999 0.0 0
M  V30 14 C 5.1961 -1.5 0.0 0
M  V30 END ATOM
M  V30 BEGIN BOND
M  V30 1 2 1 2
M  V30 2 1 2 3
M  V30 3 1 4 2
M  V30 4 1 3 5
M  V30 5 1 4 6 CFG=3
M  V30 6 1 4 7
M  V30 7 2 5 8
M  V30 8 1 5 9
M  V30 9 1 8 10
M  V30 10 1 8 11
M  V30 11 2 9 12
M  V30 12 1 9 13
M  V30 13 2 10 14
M  V30 14 1 12 14
M  V30 END BOND
M  V30 BEGIN COLLECTION
M  V30 MDLV30/STERAC1 ATOMS=(1 4)
M  V30 END COLLECTION
M  V30 END CTAB
M  END
>  <Molecule Name>


>  <status>
DISCONTINUED

>  <cas>
41708-72-9

>  <name>
TOCAINIDE

>  <ID>
500

>  <Smiles>
CC(C(Nc1c(C)cccc1C)=O)N

$$$$

Actelion Java MolfileCreator 2.0

  0  0  0  0  0  0              0 V3000
M  V30 BEGIN CTAB
M  V30 COUNTS 22 25 0 0 0
M  V30 BEGIN ATOM
M  V30 1 Cl 1.9882 -4.3928 0.0 0
M  V30 2 C 1.9733 -3.393 0.0 0
M  V30 3 C 2.8317 -2.8801 0.0 0
M  V30 4 C 1.0998 -2.906 0.0 0
M  V30 5 C 2.8167 -1.8802 0.0 0
M  V30 6 C 1.0849 -1.9061 0.0 0
M  V30 7 C 3.7421 -1.5009 0.0 0
M  V30 8 C 1.9433 -1.3932 0.0 0
M  V30 9 N 4.0225 -0.5411 0.0 0
M  V30 10 C 4.4852 -2.1701 0.0 0
M  V30 11 N 1.7795 -0.4067 0.0 0
M  V30 12 C 3.4469 0.2766 0.0 0
M  V30 13 C 4.2773 -3.1482 0.0 0
M  V30 14 C 5.4363 -1.8611 0.0 0
M  V30 15 C 2.4487 0.3364 0.0 0
M  V30 16 C 0.866 0.0 0.0 0
M  V30 17 C 5.0204 -3.8173 0.0 0
M  V30 18 C 6.1794 -2.5302 0.0 0
M  V30 19 N 1.9487 1.2024 0.0 0
M  V30 20 N 0.9705 0.9945 0.0 0
M  V30 21 C 0.0 -0.5 0.0 0
M  V30 22 C 5.9715 -3.5083 0.0 0
M  V30 END ATOM
M  V30 BEGIN BOND
M  V30 1 1 1 2
M  V30 2 2 2 3
M  V30 3 1 2 4
M  V30 4 1 3 5
M  V30 5 2 4 6
M  V30 6 1 5 7
M  V30 7 2 5 8
M  V30 8 2 7 9
M  V30 9 1 7 10
M  V30 10 1 8 11
M  V30 11 1 9 12
M  V30 12 2 10 13
M  V30 13 1 10 14
M  V30 14 1 11 15
M  V30 15 1 11 16
M  V30 16 1 13 17
M  V30 17 2 14 18
M  V30 18 2 15 19
M  V30 19 2 16 20
M  V30 20 1 16 21
M  V30 21 2 17 22
M  V30 22 1 6 8
M  V30 23 1 12 15
M  V30 24 1 18 22
M  V30 25 1 19 20
M  V30 END BOND
M  V30 END CTAB
M  END
>  <Molecule Name>


>  <status>
-

>  <cas>
28981-97-7

>  <name>
ALPRAZOLAM

>  <ID>
501

>  <Smiles>
Cc1nnc2n1-c(ccc(Cl)c1)c1C(c1ccccc1)=NC2

$$$$

Actelion Java MolfileCreator 2.0

  0  0  0  0  0  0              0 V3000
M  V30 BEGIN CTAB
M  V30 COUNTS 18 19 0 0 0
M  V30 BEGIN ATOM
M  V30 1 O 5.1961 -0.5 0.0 0
M  V30 2 C 6.0621 0.0 0.0 0
M  V30 3 C 4.3301 0.0 0.0 0
M  V30 4 C 6.0621 0.9999 0.0 0
M  V30 5 C 6.9282 -0.5 0.0 0
M  V30 6 C 3.4641 -0.5 0.0 0 CFG=1
M  V30 7 C 6.9282 1.4999 0.0 0
M  V30 8 C 5.319 1.6691 0.0 0
M  V30 9 C 7.7942 0.0 0.0 0
M  V30 10 O 3.4641 -1.5 0.0 0
M  V30 11 C 2.598 0.0 0.0 0
M  V30 12 N 6.7202 2.4781 0.0 0
M  V30 13 C 7.7942 0.9999 0.0 0
M  V30 14 C 5.7257 2.5826 0.0 0
M  V30 15 N 1.732 -0.5 0.0 0
M  V30 16 C 0.866 0.0 0.0 0
M  V30 17 C 0.866 1.0 0.0 0
M  V30 18 C 0.0 -0.5 0.0 0
M  V30 END ATOM
M  V30 BEGIN BOND
M  V30 1 1 1 2
M  V30 2 1 1 3
M  V30 3 2 2 4
M  V30 4 1 2 5
M  V30 5 1 6 3
M  V30 6 1 4 7
M  V30 7 1 4 8
M  V30 8 2 5 9
M  V30 9 1 6 10 CFG=1
M  V30 10 1 6 11
M  V30 11 1 7 12
M  V30 12 2 7 13
M  V30 13 2 8 14
M  V30 14 1 11 15
M  V30 15 1 15 16
M  V30 16 1 16 17
M  V30 17 1 16 18
M  V30 18 1 9 13
M  V30 19 1 12 14
M  V30 END BOND
M  V30 BEGIN COLLECTION
M  V30 MDLV30/STERAC1 ATOMS=(1 6)
M  V30 END COLLECTION
M  V30 END CTAB
M  END
>  <Molecule Name>


>  <status>
-

>  <cas>
13523-86-9

>  <name>
PINDOLOL

>  <ID>
502

>  <Smiles>
CC(C)NCC(COc1c(cc[nH]2)c2ccc1)O

$$$$

Actelion Java MolfileCreator 2.0

  0  0  0  0  0  0              0 V3000
M  V30 BEGIN CTAB
M  V30 COUNTS 20 21 0 0 0
M  V30 BEGIN ATOM
M  V30 1 F 7.2883 -1.6575 0.0 0
M  V30 2 C 6.4793 -2.2453 0.0 0
M  V30 3 F 7.0671 -3.0544 0.0 0
M  V30 4 F 5.6703 -2.8331 0.0 0
M  V30 5 C 5.8915 -1.4363 0.0 0
M  V30 6 C 6.2982 -0.5228 0.0 0
M  V30 7 C 4.897 -1.5408 0.0 0
M  V30 8 O 7.2928 -0.4182 0.0 0
M  V30 9 N 5.7105 0.2861 0.0 0
M  V30 10 N 4.3092 -0.7318 0.0 0
M  V30 11 C 4.7159 0.1816 0.0 0
M  V30 12 C 3.3147 -0.8364 0.0 0 CFG=1
M  V30 13 O 4.1282 0.9906 0.0 0
M  V30 14 O 2.6455 -0.0932 0.0 0
M  V30 15 C 2.8147 -1.7024 0.0 0
M  V30 16 C 1.732 -0.5 0.0 0 CFG=2
M  V30 17 C 1.8365 -1.4945 0.0 0 CFG=2
M  V30 18 C 0.866 0.0 0.0 0
M  V30 19 O 1.0934 -2.1636 0.0 0
M  V30 20 O 0.0 -0.5 0.0 0
M  V30 END ATOM
M  V30 BEGIN BOND
M  V30 1 1 1 2
M  V30 2 1 2 3
M  V30 3 1 2 4
M  V30 4 1 2 5
M  V30 5 1 5 6
M  V30 6 2 5 7
M  V30 7 2 6 8
M  V30 8 1 6 9
M  V30 9 1 7 10
M  V30 10 1 9 11
M  V30 11 1 12 10 CFG=3
M  V30 12 2 11 13
M  V30 13 1 12 14
M  V30 14 1 12 15
M  V30 15 1 16 14
M  V30 16 1 17 15
M  V30 17 1 16 18 CFG=3
M  V30 18 1 17 19 CFG=1
M  V30 19 1 18 20
M  V30 20 1 10 11
M  V30 21 1 16 17
M  V30 END BOND
M  V30 BEGIN COLLECTION
M  V30 MDLV30/STERAC1 ATOMS=(3 12 16 17)
M  V30 END COLLECTION
M  V30 END CTAB
M  END
>  <Molecule Name>


>  <status>
-

>  <cas>
70-00-8

>  <name>
TRIFLURIDINE

>  <ID>
503

>  <Smiles>
OC[C@@H]([C@@H](C1)O)O[C@@H]1N(C=C(C(F)(F)F)C(N1)=O)C1=O

$$$$

Actelion Java MolfileCreator 2.0

  0  0  0  0  0  0              0 V3000
M  V30 BEGIN CTAB
M  V30 COUNTS 14 14 0 0 0
M  V30 BEGIN ATOM
M  V30 1 S 3.4641 -0.5 0.0 0
M  V30 2 C 2.598 0.0 0.0 0
M  V30 3 C 1.732 -0.5 0.0 0 CFG=2
M  V30 4 C 0.866 0.0 0.0 0
M  V30 5 C 1.732 -1.5 0.0 0
M  V30 6 O 0.866 1.0 0.0 0
M  V30 7 N 0.0 -0.5 0.0 0
M  V30 8 C -0.9135 -0.0932 0.0 0 CFG=2
M  V30 9 C -0.1045 -1.4945 0.0 0
M  V30 10 C -1.1214 0.8848 0.0 0
M  V30 11 C -1.5826 -0.8364 0.0 0
M  V30 12 C -1.0826 -1.7024 0.0 0
M  V30 13 O -0.3783 1.554 0.0 0
M  V30 14 O -2.0725 1.1939 0.0 0 CHG=-1
M  V30 END ATOM
M  V30 BEGIN BOND
M  V30 1 1 1 2
M  V30 2 1 3 2
M  V30 3 1 3 4
M  V30 4 1 3 5 CFG=1
M  V30 5 2 4 6
M  V30 6 1 4 7
M  V30 7 1 8 7
M  V30 8 1 7 9
M  V30 9 1 8 10 CFG=1
M  V30 10 1 8 11
M  V30 11 1 9 12
M  V30 12 2 10 13
M  V30 13 1 10 14
M  V30 14 1 11 12
M  V30 END BOND
M  V30 BEGIN COLLECTION
M  V30 MDLV30/STERAC1 ATOMS=(2 3 8)
M  V30 END COLLECTION
M  V30 END CTAB
M  END
>  <Molecule Name>


>  <status>
-

>  <cas>
62571-86-2

>  <name>
CAPTOPRIL

>  <ID>
504

>  <Smiles>
C[C@H](CS)C(N(CCC1)[C@@H]1C([O-])=O)=O

$$$$

Actelion Java MolfileCreator 2.0

  0  0  0  0  0  0              0 V3000
M  V30 BEGIN CTAB
M  V30 COUNTS 33 34 0 0 0
M  V30 BEGIN ATOM
M  V30 1 O -1.732 -3.4999 0.0 0
M  V30 2 C -0.866 -2.9999 0.0 0
M  V30 3 C -1.732 -4.4999 0.0 0
M  V30 4 C 0.0 -3.5 0.0 0
M  V30 5 C -0.866 -1.9999 0.0 0
M  V30 6 O 0.0 -4.5 0.0 0
M  V30 7 C 0.866 -3.0 0.0 0
M  V30 8 C 0.0 -1.5 0.0 0
M  V30 9 C 0.866 -5.0 0.0 0
M  V30 10 C 0.866 -2.0 0.0 0
M  V30 11 C 0.0 -0.5 0.0 0 CFG=1
M  V30 12 C 0.866 -1.0 0.0 0
M  V30 13 C -0.866 0.0 0.0 0
M  V30 14 C 0.866 0.0 0.0 0
M  V30 15 N 1.732 -1.5 0.0 0
M  V30 16 C -1.732 -0.4999 0.0 0
M  V30 17 C -0.866 1.0 0.0 0
M  V30 18 C 1.732 -0.5 0.0 0
M  V30 19 C 2.598 0.0 0.0 0
M  V30 20 N 3.4641 -0.5 0.0 0
M  V30 21 C 4.3301 0.0 0.0 0
M  V30 22 C 3.4641 -1.5 0.0 0
M  V30 23 C 5.1961 -0.5 0.0 0
M  V30 24 C 6.0621 0.0 0.0 0
M  V30 25 C 6.9282 -0.5 0.0 0
M  V30 26 C 6.0621 0.9999 0.0 0
M  V30 27 C 7.7942 0.0 0.0 0
M  V30 28 C 6.9282 1.4999 0.0 0
M  V30 29 O 8.6602 -0.5 0.0 0
M  V30 30 C 7.7942 0.9999 0.0 0
M  V30 31 C 9.5262 0.0 0.0 0
M  V30 32 O 8.6602 1.4999 0.0 0
M  V30 33 C 8.6602 2.4999 0.0 0
M  V30 END ATOM
M  V30 BEGIN BOND
M  V30 1 1 1 2
M  V30 2 1 1 3
M  V30 3 2 2 4
M  V30 4 1 2 5
M  V30 5 1 4 6
M  V30 6 1 4 7
M  V30 7 2 5 8
M  V30 8 1 6 9
M  V30 9 2 7 10
M  V30 10 1 11 8
M  V30 11 1 11 12 CFG=3
M  V30 12 1 11 13
M  V30 13 1 11 14
M  V30 14 3 12 15
M  V30 15 1 13 16
M  V30 16 1 13 17
M  V30 17 1 14 18
M  V30 18 1 18 19
M  V30 19 1 19 20
M  V30 20 1 20 21
M  V30 21 1 20 22
M  V30 22 1 21 23
M  V30 23 1 23 24
M  V30 24 2 24 25
M  V30 25 1 24 26
M  V30 26 1 25 27
M  V30 27 2 26 28
M  V30 28 1 27 29
M  V30 29 2 27 30
M  V30 30 1 29 31
M  V30 31 1 30 32
M  V30 32 1 32 33
M  V30 33 1 8 10
M  V30 34 1 28 30
M  V30 END BOND
M  V30 BEGIN COLLECTION
M  V30 MDLV30/STERAC1 ATOMS=(1 11)
M  V30 END COLLECTION
M  V30 END CTAB
M  END
>  <Molecule Name>


>  <status>
-

>  <cas>
52-53-9

>  <name>
VERAPAMIL

>  <ID>
505

>  <Smiles>
CC(C)C(CCCN(C)CCc(cc1)cc(OC)c1OC)(c(cc1)cc(OC)c1OC)C#N

$$$$

Actelion Java MolfileCreator 2.0

  0  0  0  0  0  0              0 V3000
M  V30 BEGIN CTAB
M  V30 COUNTS 34 40 0 0 0
M  V30 BEGIN ATOM
M  V30 1 O 5.0029 -0.9999 0.0 0
M  V30 2 C 4.4151 -0.1909 0.0 0
M  V30 3 C 4.4151 -1.809 0.0 0 CFG=1
M  V30 4 C 4.4756 0.8394 0.0 0
M  V30 5 C 3.5059 -0.36 0.0 0
M  V30 6 C 4.4756 -2.8394 0.0 0 CFG=2
M  V30 7 C 3.4641 -1.4999 0.0 0 CFG=2
M  V30 8 O 5.3796 1.267 0.0 0
M  V30 9 C 3.6666 1.4272 0.0 0
M  V30 10 C 2.5857 -0.1393 0.0 0
M  V30 11 O 5.3796 -3.267 0.0 0
M  V30 12 C 3.7751 -3.5099 0.0 0 CFG=1
M  V30 13 C 3.4166 -3.4272 0.0 0
M  V30 14 C 2.598 -2.0 0.0 0 CFG=1
M  V30 15 C 3.5862 -0.6758 0.0 0
M  V30 16 C 2.7531 1.0204 0.0 0
M  V30 17 C 1.6218 -0.6226 0.0 0
M  V30 18 C 6.2019 -2.698 0.0 0
M  V30 19 C 3.7711 -4.4217 0.0 0 CFG=2
M  V30 20 C 2.8561 -2.9295 0.0 0
M  V30 21 C 2.5031 -3.0204 0.0 0
M  V30 22 C 1.732 -1.4999 0.0 0 CFG=1
M  V30 23 C 2.8279 0.0947 0.0 0
M  V30 24 O 4.7656 -4.3171 0.0 0
M  V30 25 C 2.9621 -5.0095 0.0 0
M  V30 26 C 4.3589 -5.2307 0.0 0
M  V30 27 N 1.7267 -0.3416 0.0 0
M  V30 28 C 2.3743 -4.2004 0.0 0
M  V30 29 C 2.1531 -5.5973 0.0 0
M  V30 30 C 3.5499 -5.8185 0.0 0
M  V30 31 C 0.866 0.0 0.0 0
M  V30 32 C 0.0 -0.5 0.0 0
M  V30 33 C -1.0 -0.4999 0.0 0
M  V30 34 C -0.5 -1.366 0.0 0
M  V30 END ATOM
M  V30 BEGIN BOND
M  V30 1 1 1 2
M  V30 2 1 3 1 CFG=1
M  V30 3 2 2 4
M  V30 4 1 2 5
M  V30 5 1 6 3
M  V30 6 1 7 3
M  V30 7 1 4 8
M  V30 8 1 4 9
M  V30 9 2 5 10
M  V30 10 1 6 11 CFG=1
M  V30 11 1 12 6
M  V30 12 1 6 13
M  V30 13 1 14 7
M  V30 14 1 7 15 CFG=3
M  V30 15 2 9 16
M  V30 16 1 10 17
M  V30 17 1 11 18
M  V30 18 1 19 12
M  V30 19 1 12 20 CFG=1
M  V30 20 1 13 21
M  V30 21 1 22 14
M  V30 22 1 15 23
M  V30 23 1 19 24 CFG=3
M  V30 24 1 19 25
M  V30 25 1 19 26
M  V30 26 1 22 27 CFG=3
M  V30 27 1 25 28
M  V30 28 1 25 29
M  V30 29 1 25 30
M  V30 30 1 27 31
M  V30 31 1 31 32
M  V30 32 1 32 33
M  V30 33 1 32 34
M  V30 34 1 5 7
M  V30 35 1 10 16
M  V30 36 1 14 20 CFG=3
M  V30 37 1 14 21
M  V30 38 1 17 22
M  V30 39 1 23 27
M  V30 40 1 33 34
M  V30 END BOND
M  V30 BEGIN COLLECTION
M  V30 MDLV30/STERAC1 ATOMS=(7 3 6 7 12 14 19 22)
M  V30 END COLLECTION
M  V30 END CTAB
M  END
>  <Molecule Name>


>  <status>
-

>  <cas>
52485-79-7

>  <name>
BUPRENORPHINE

>  <ID>
506

>  <Smiles>
CC(C)(C)[C@](C)([C@@H](C[C@](CC1)([C@@H](C2)N(CC3CC3)CC3)[C@@]33c4c2ccc(O)c4O[C@@H]32)[C@@]12OC)O

$$$$

Actelion Java MolfileCreator 2.0

  0  0  0  0  0  0              0 V3000
M  V30 BEGIN CTAB
M  V30 COUNTS 18 18 0 0 0
M  V30 BEGIN ATOM
M  V30 1 O 9.0932 0.0 0.0 0
M  V30 2 C 7.7942 -0.75 0.0 0
M  V30 3 O 7.7942 -2.25 0.0 0 CHG=-1
M  V30 4 C 6.4952 0.0 0.0 0
M  V30 5 C 5.1961 -0.75 0.0 0
M  V30 6 C 7.2452 1.299 0.0 0
M  V30 7 C 5.7452 1.299 0.0 0
M  V30 8 C 3.8971 0.0 0.0 0
M  V30 9 C 2.598 -0.75 0.0 0
M  V30 10 O 1.299 0.0 0.0 0
M  V30 11 C 0.0 -0.75 0.0 0
M  V30 12 C -1.299 0.0 0.0 0
M  V30 13 C 0.0 -2.25 0.0 0
M  V30 14 C -2.598 -0.75 0.0 0
M  V30 15 C -1.299 1.5 0.0 0
M  V30 16 C -1.299 -3.0 0.0 0
M  V30 17 C -2.598 -2.25 0.0 0
M  V30 18 C -1.299 -4.5 0.0 0
M  V30 END ATOM
M  V30 BEGIN BOND
M  V30 1 2 1 2
M  V30 2 1 2 3
M  V30 3 1 2 4
M  V30 4 1 4 5
M  V30 5 1 4 6
M  V30 6 1 4 7
M  V30 7 1 5 8
M  V30 8 1 8 9
M  V30 9 1 9 10
M  V30 10 1 10 11
M  V30 11 2 11 12
M  V30 12 1 11 13
M  V30 13 1 12 14
M  V30 14 1 12 15
M  V30 15 2 13 16
M  V30 16 2 14 17
M  V30 17 1 16 18
M  V30 18 1 16 17
M  V30 END BOND
M  V30 END CTAB
M  END
>  <Molecule Name>


>  <status>
-

>  <cas>
25812-30-0

>  <name>
GEMFIBROZIL

>  <ID>
507

>  <Smiles>
CC(C)(CCCOc1c(C)ccc(C)c1)C([O-])=O

$$$$

Actelion Java MolfileCreator 2.0

  0  0  0  0  0  0              0 V3000
M  V30 BEGIN CTAB
M  V30 COUNTS 18 19 0 0 0
M  V30 BEGIN ATOM
M  V30 1 F 3.4641 1.4999 0.0 0
M  V30 2 C 4.3301 0.9999 0.0 0
M  V30 3 C 4.3301 0.0 0.0 0
M  V30 4 C 5.1961 1.5 0.0 0
M  V30 5 C 3.4641 -0.5 0.0 0
M  V30 6 C 5.1961 -0.5 0.0 0
M  V30 7 C 6.0621 0.9999 0.0 0
M  V30 8 C 2.598 0.0 0.0 0
M  V30 9 C 3.4641 -1.4999 0.0 0
M  V30 10 C 6.0621 0.0 0.0 0
M  V30 11 F 6.9282 1.4999 0.0 0
M  V30 12 C 1.732 -0.5 0.0 0
M  V30 13 C 2.598 -2.0 0.0 0
M  V30 14 C 1.732 -1.5 0.0 0
M  V30 15 C 0.866 0.0 0.0 0
M  V30 16 O 0.866 -1.9999 0.0 0
M  V30 17 O 0.866 1.0 0.0 0
M  V30 18 O 0.0 -0.5 0.0 0 CHG=-1
M  V30 END ATOM
M  V30 BEGIN BOND
M  V30 1 1 1 2
M  V30 2 2 2 3
M  V30 3 1 2 4
M  V30 4 1 3 5
M  V30 5 1 3 6
M  V30 6 2 4 7
M  V30 7 2 5 8
M  V30 8 1 5 9
M  V30 9 2 6 10
M  V30 10 1 7 11
M  V30 11 1 8 12
M  V30 12 2 9 13
M  V30 13 2 12 14
M  V30 14 1 12 15
M  V30 15 1 14 16
M  V30 16 2 15 17
M  V30 17 1 15 18
M  V30 18 1 7 10
M  V30 19 1 13 14
M  V30 END BOND
M  V30 END CTAB
M  END
>  <Molecule Name>


>  <status>
-

>  <cas>
22494-42-4

>  <name>
DIFLUNISAL

>  <ID>
508

>  <Smiles>
[O-]C(c(cc(cc1)-c(ccc(F)c2)c2F)c1O)=O

$$$$

Actelion Java MolfileCreator 2.0

  0  0  0  0  0  0              0 V3000
M  V30 BEGIN CTAB
M  V30 COUNTS 19 20 0 0 0
M  V30 BEGIN ATOM
M  V30 1 O 2.598 -3.0 0.0 0
M  V30 2 C 2.598 -1.9999 0.0 0
M  V30 3 C 3.4641 -1.5 0.0 0
M  V30 4 C 1.732 -1.5 0.0 0
M  V30 5 C 3.4641 -0.5 0.0 0
M  V30 6 C 4.3301 -2.0 0.0 0
M  V30 7 C 1.732 -0.5 0.0 0
M  V30 8 C 0.866 -2.0 0.0 0
M  V30 9 C 2.598 0.0 0.0 0
M  V30 10 C 4.8301 -1.1339 0.0 0
M  V30 11 C 5.1961 -2.5 0.0 0
M  V30 12 C 3.8301 -2.866 0.0 0
M  V30 13 C 0.866 0.0 0.0 0
M  V30 14 C 2.598 1.0 0.0 0
M  V30 15 C 0.0 -0.5 0.0 0
M  V30 16 N -0.9135 -0.0932 0.0 0
M  V30 17 N -0.1045 -1.4945 0.0 0
M  V30 18 C -1.5826 -0.8364 0.0 0
M  V30 19 C -1.0826 -1.7024 0.0 0
M  V30 END ATOM
M  V30 BEGIN BOND
M  V30 1 1 1 2
M  V30 2 2 2 3
M  V30 3 1 2 4
M  V30 4 1 3 5
M  V30 5 1 3 6
M  V30 6 2 4 7
M  V30 7 1 4 8
M  V30 8 2 5 9
M  V30 9 1 6 10
M  V30 10 1 6 11
M  V30 11 1 6 12
M  V30 12 1 7 13
M  V30 13 1 9 14
M  V30 14 1 13 15
M  V30 15 2 15 16
M  V30 16 1 15 17
M  V30 17 1 16 18
M  V30 18 1 17 19
M  V30 19 1 7 9
M  V30 20 1 18 19
M  V30 END BOND
M  V30 END CTAB
M  END
>  <Molecule Name>


>  <status>
-

>  <cas>
1491-59-4

>  <name>
OXYMETAZOLINE

>  <ID>
509

>  <Smiles>
CC(C)(C)c(cc(C)c(CC1=NCCN1)c1C)c1O

$$$$

Actelion Java MolfileCreator 2.0

  0  0  0  0  0  0              0 V3000
M  V30 BEGIN CTAB
M  V30 COUNTS 25 26 0 0 0
M  V30 BEGIN ATOM
M  V30 1 O 0.0 -0.7562 0.0 0
M  V30 2 N 1.288 0.1978 0.0 0 CHG=1
M  V30 3 O 2.6503 -0.4171 0.0 0 CHG=-1
M  V30 4 C 1.3098 1.5124 0.0 0
M  V30 5 C 2.6196 2.2687 0.0 0
M  V30 6 C 0.0 2.2687 0.0 0
M  V30 7 C 2.6196 3.7811 0.0 0
M  V30 8 C 3.9295 1.5124 0.0 0
M  V30 9 C 0.0 3.7811 0.0 0
M  V30 10 C 1.3098 4.5374 0.0 0
M  V30 11 C 3.9295 0.0 0.0 0
M  V30 12 C 5.2393 2.2687 0.0 0
M  V30 13 C 5.2393 -0.7562 0.0 0
M  V30 14 C 2.6009 -0.9632 0.0 0
M  V30 15 C 6.5492 1.5124 0.0 0
M  V30 16 C 5.2393 3.7811 0.0 0
M  V30 17 N 6.5492 0.0 0.0 0
M  V30 18 C 5.2393 -2.2687 0.0 0
M  V30 19 O 1.349 -0.356 0.0 0
M  V30 20 O 2.6196 -2.2687 0.0 0
M  V30 21 C 7.859 2.2687 0.0 0
M  V30 22 O 3.9295 4.5374 0.0 0
M  V30 23 O 6.5492 4.5374 0.0 0
M  V30 24 C 1.3098 -3.0249 0.0 0
M  V30 25 C 6.5492 6.0499 0.0 0
M  V30 END ATOM
M  V30 BEGIN BOND
M  V30 1 2 1 2
M  V30 2 1 2 3
M  V30 3 1 2 4
M  V30 4 2 4 5
M  V30 5 1 4 6
M  V30 6 1 5 7
M  V30 7 1 5 8
M  V30 8 2 6 9
M  V30 9 2 7 10
M  V30 10 1 8 11
M  V30 11 1 8 12
M  V30 12 2 11 13
M  V30 13 1 11 14
M  V30 14 2 12 15
M  V30 15 1 12 16
M  V30 16 1 13 17
M  V30 17 1 13 18
M  V30 18 2 14 19
M  V30 19 1 14 20
M  V30 20 1 15 21
M  V30 21 2 16 22
M  V30 22 1 16 23
M  V30 23 1 20 24
M  V30 24 1 23 25
M  V30 25 1 9 10
M  V30 26 1 15 17
M  V30 END BOND
M  V30 END CTAB
M  END
>  <Molecule Name>


>  <status>
-

>  <cas>
21829-25-4

>  <name>
NIFEDIPINE

>  <ID>
510

>  <Smiles>
CC(NC(C)=C(C1c(cccc2)c2[N+]([O-])=O)C(OC)=O)=C1C(OC)=O

$$$$

Actelion Java MolfileCreator 2.0

  0  0  0  0  0  0              0 V3000
M  V30 BEGIN CTAB
M  V30 COUNTS 25 25 0 0 0
M  V30 BEGIN ATOM
M  V30 1 O 8.0496 0.8848 0.0 0
M  V30 2 C 7.8417 -0.0932 0.0 0
M  V30 3 C 6.9282 -0.5 0.0 0 CFG=2
M  V30 4 C 8.5108 -0.8364 0.0 0
M  V30 5 C 7.0327 -1.4945 0.0 0 CFG=1
M  V30 6 C 6.0621 0.0 0.0 0
M  V30 7 C 8.0108 -1.7024 0.0 0 CFG=1
M  V30 8 C 6.2895 -2.1636 0.0 0
M  V30 9 C 5.1961 -0.5 0.0 0
M  V30 10 O 8.4176 -2.6159 0.0 0
M  V30 11 C 6.4974 -3.1418 0.0 0
M  V30 12 C 4.3301 0.0 0.0 0
M  V30 13 C 5.7543 -3.8109 0.0 0 CFG=2
M  V30 14 C 3.4641 -0.5 0.0 0
M  V30 15 O 4.8032 -3.5019 0.0 0
M  V30 16 C 5.9622 -4.789 0.0 0
M  V30 17 C 2.598 0.0 0.0 0
M  V30 18 C 5.2191 -5.4582 0.0 0
M  V30 19 C 1.732 -0.5 0.0 0
M  V30 20 C 5.427 -6.4363 0.0 0
M  V30 21 C 0.866 0.0 0.0 0
M  V30 22 C 4.6838 -7.1054 0.0 0
M  V30 23 O 0.866 1.0 0.0 0
M  V30 24 O 0.0 -0.5 0.0 0 CHG=-1
M  V30 25 C 4.8917 -8.0836 0.0 0
M  V30 END ATOM
M  V30 BEGIN BOND
M  V30 1 2 1 2
M  V30 2 1 3 2
M  V30 3 1 2 4
M  V30 4 1 5 3
M  V30 5 1 3 6 CFG=3
M  V30 6 1 7 4
M  V30 7 1 5 8 CFG=1
M  V30 8 1 6 9
M  V30 9 1 7 10 CFG=3
M  V30 10 2 8 11
M  V30 11 1 9 12
M  V30 12 1 13 11
M  V30 13 1 12 14
M  V30 14 1 13 15 CFG=1
M  V30 15 1 13 16
M  V30 16 1 14 17
M  V30 17 1 16 18
M  V30 18 1 17 19
M  V30 19 1 18 20
M  V30 20 1 19 21
M  V30 21 1 20 22
M  V30 22 2 21 23
M  V30 23 1 21 24
M  V30 24 1 22 25
M  V30 25 1 5 7
M  V30 END BOND
M  V30 BEGIN COLLECTION
M  V30 MDLV30/STERAC1 ATOMS=(4 3 5 7 13)
M  V30 END COLLECTION
M  V30 END CTAB
M  END
>  <Molecule Name>


>  <status>
-

>  <cas>
745-65-3

>  <name>
ALPROSTADIL

>  <ID>
511

>  <Smiles>
CCCCC[C@H](/C=C/[C@@H]([C@H](CCCCCCC([O-])=O)C(C1)=O)[C@H]1O)O

$$$$

Actelion Java MolfileCreator 2.0

  0  0  0  0  0  0              0 V3000
M  V30 BEGIN CTAB
M  V30 COUNTS 33 34 0 0 0
M  V30 BEGIN ATOM
M  V30 1 O -1.732 -3.4999 0.0 0
M  V30 2 C -0.866 -2.9999 0.0 0
M  V30 3 C -1.732 -4.4999 0.0 0
M  V30 4 C 0.0 -3.5 0.0 0
M  V30 5 C -0.866 -1.9999 0.0 0
M  V30 6 O 0.0 -4.5 0.0 0
M  V30 7 C 0.866 -3.0 0.0 0
M  V30 8 C 0.0 -1.5 0.0 0
M  V30 9 C 0.866 -5.0 0.0 0
M  V30 10 C 0.866 -2.0 0.0 0
M  V30 11 C 0.0 -0.5 0.0 0 CFG=1
M  V30 12 C 0.866 -1.0 0.0 0
M  V30 13 C -0.866 0.0 0.0 0
M  V30 14 C 0.866 0.0 0.0 0
M  V30 15 N 1.732 -1.5 0.0 0
M  V30 16 C -1.732 -0.4999 0.0 0
M  V30 17 C -0.866 1.0 0.0 0
M  V30 18 C 1.732 -0.5 0.0 0
M  V30 19 C 2.598 0.0 0.0 0
M  V30 20 N 3.4641 -0.5 0.0 0
M  V30 21 C 4.3301 0.0 0.0 0
M  V30 22 C 3.4641 -1.5 0.0 0
M  V30 23 C 5.1961 -0.5 0.0 0
M  V30 24 C 6.0621 0.0 0.0 0
M  V30 25 C 6.9282 -0.5 0.0 0
M  V30 26 C 6.0621 0.9999 0.0 0
M  V30 27 C 7.7942 0.0 0.0 0
M  V30 28 C 6.9282 1.4999 0.0 0
M  V30 29 O 8.6602 -0.5 0.0 0
M  V30 30 C 7.7942 0.9999 0.0 0
M  V30 31 C 9.5262 0.0 0.0 0
M  V30 32 O 8.6602 1.4999 0.0 0
M  V30 33 C 8.6602 2.4999 0.0 0
M  V30 END ATOM
M  V30 BEGIN BOND
M  V30 1 1 1 2
M  V30 2 1 1 3
M  V30 3 2 2 4
M  V30 4 1 2 5
M  V30 5 1 4 6
M  V30 6 1 4 7
M  V30 7 2 5 8
M  V30 8 1 6 9
M  V30 9 2 7 10
M  V30 10 1 11 8
M  V30 11 1 11 12 CFG=3
M  V30 12 1 11 13
M  V30 13 1 11 14
M  V30 14 3 12 15
M  V30 15 1 13 16
M  V30 16 1 13 17
M  V30 17 1 14 18
M  V30 18 1 18 19
M  V30 19 1 19 20
M  V30 20 1 20 21
M  V30 21 1 20 22
M  V30 22 1 21 23
M  V30 23 1 23 24
M  V30 24 2 24 25
M  V30 25 1 24 26
M  V30 26 1 25 27
M  V30 27 2 26 28
M  V30 28 1 27 29
M  V30 29 2 27 30
M  V30 30 1 29 31
M  V30 31 1 30 32
M  V30 32 1 32 33
M  V30 33 1 8 10
M  V30 34 1 28 30
M  V30 END BOND
M  V30 BEGIN COLLECTION
M  V30 MDLV30/STERAC1 ATOMS=(1 11)
M  V30 END COLLECTION
M  V30 END CTAB
M  END
>  <Molecule Name>


>  <status>
-

>  <cas>
52-53-9

>  <name>
VERAPAMIL

>  <ID>
512

>  <Smiles>
CC(C)C(CCCN(C)CCc(cc1)cc(OC)c1OC)(c(cc1)cc(OC)c1OC)C#N

$$$$

Actelion Java MolfileCreator 2.0

  0  0  0  0  0  0              0 V3000
M  V30 BEGIN CTAB
M  V30 COUNTS 28 31 0 0 0
M  V30 BEGIN ATOM
M  V30 1 O 4.3301 0.0 0.0 0
M  V30 2 C 3.4641 -0.5 0.0 0
M  V30 3 O 3.4641 -1.5 0.0 0 CHG=-1
M  V30 4 C 2.598 0.0 0.0 0
M  V30 5 C 1.732 -0.5 0.0 0
M  V30 6 C 0.866 0.0 0.0 0 CFG=2
M  V30 7 C 0.866 1.0 0.0 0 CFG=2
M  V30 8 C 0.0 -0.5 0.0 0
M  V30 9 C 1.675 1.5877 0.0 0 CFG=2
M  V30 10 C 0.057 1.5877 0.0 0
M  V30 11 C 1.366 2.5388 0.0 0 CFG=1
M  V30 12 C 2.6531 1.3798 0.0 0
M  V30 13 C 1.8829 0.6096 0.0 0
M  V30 14 C 0.366 2.5388 0.0 0
M  V30 15 C 2.0351 3.2819 0.0 0 CFG=2
M  V30 16 C 3.3223 2.123 0.0 0
M  V30 17 C 1.7261 4.233 0.0 0 CFG=2
M  V30 18 C 3.0133 3.074 0.0 0 CFG=2
M  V30 19 O 0.7479 4.4409 0.0 0
M  V30 20 C 2.3952 4.9761 0.0 0
M  V30 21 C 3.6824 3.8172 0.0 0 CFG=2
M  V30 22 C 3.3734 4.7682 0.0 0 CFG=1
M  V30 23 C 4.6605 3.6093 0.0 0
M  V30 24 C 3.9914 2.8661 0.0 0
M  V30 25 C 4.0425 5.5114 0.0 0
M  V30 26 C 5.3297 4.3524 0.0 0
M  V30 27 C 5.0206 5.3035 0.0 0 CFG=1
M  V30 28 O 5.6898 6.0466 0.0 0
M  V30 END ATOM
M  V30 BEGIN BOND
M  V30 1 2 1 2
M  V30 2 1 2 3
M  V30 3 1 2 4
M  V30 4 1 4 5
M  V30 5 1 6 5
M  V30 6 1 7 6
M  V30 7 1 6 8 CFG=1
M  V30 8 1 9 7
M  V30 9 1 7 10 CFG=1
M  V30 10 1 11 9
M  V30 11 1 9 12
M  V30 12 1 9 13 CFG=1
M  V30 13 1 10 14
M  V30 14 1 15 11 CFG=3
M  V30 15 1 12 16
M  V30 16 1 17 15
M  V30 17 1 18 15
M  V30 18 1 17 19 CFG=3
M  V30 19 1 17 20
M  V30 20 1 21 18
M  V30 21 1 22 20 CFG=3
M  V30 22 1 21 23
M  V30 23 1 21 24 CFG=1
M  V30 24 1 22 25
M  V30 25 1 23 26
M  V30 26 1 27 25
M  V30 27 1 27 28 CFG=3
M  V30 28 1 11 14 CFG=1
M  V30 29 1 18 16 CFG=1
M  V30 30 1 21 22
M  V30 31 1 26 27
M  V30 END BOND
M  V30 BEGIN COLLECTION
M  V30 MDLV30/STERAC1 ATOMS=(10 6 7 9 11 15 17 18 21 22 27)
M  V30 END COLLECTION
M  V30 END CTAB
M  END
>  <Molecule Name>


>  <status>
-

>  <cas>
474-25-9

>  <name>
CHENODIOL

>  <ID>
513

>  <Smiles>
C[C@H](CCC([O-])=O)[C@@H](CC1)[C@@](C)(CC[C@@H]2[C@@](C)(CC[C@H](C3)O)[C@@H]3C3)[C@@H]1[C@@H]2[C@@H]3O

$$$$

Actelion Java MolfileCreator 2.0

  0  0  0  0  0  0              0 V3000
M  V30 BEGIN CTAB
M  V30 COUNTS 24 26 0 0 0
M  V30 BEGIN ATOM
M  V30 1 Cl 5.1961 1.5 0.0 0
M  V30 2 C 4.3301 1.0 0.0 0
M  V30 3 C 3.4641 1.5 0.0 0
M  V30 4 C 4.3301 0.0 0.0 0
M  V30 5 S 3.4641 2.5 0.0 0
M  V30 6 C 2.598 0.9999 0.0 0
M  V30 7 C 3.4641 -0.4999 0.0 0
M  V30 8 O 4.4641 2.5 0.0 0
M  V30 9 O 2.4641 2.5 0.0 0
M  V30 10 N 3.4641 3.5 0.0 0
M  V30 11 C 2.598 0.0 0.0 0
M  V30 12 C 1.732 -0.5 0.0 0
M  V30 13 O 1.732 -1.5 0.0 0
M  V30 14 N 0.866 0.0 0.0 0
M  V30 15 N 0.0 -0.5 0.0 0
M  V30 16 C -0.9135 -0.0932 0.0 0
M  V30 17 C -0.1045 -1.4945 0.0 0 CFG=2
M  V30 18 C -1.5826 -0.8364 0.0 0
M  V30 19 C -1.2225 0.8577 0.0 0
M  V30 20 C -1.0826 -1.7024 0.0 0
M  V30 21 C 0.6386 -2.1636 0.0 0
M  V30 22 C -2.5608 -0.6284 0.0 0
M  V30 23 C -2.2007 1.0657 0.0 0
M  V30 24 C -2.8698 0.3225 0.0 0
M  V30 END ATOM
M  V30 BEGIN BOND
M  V30 1 1 1 2
M  V30 2 2 2 3
M  V30 3 1 2 4
M  V30 4 1 3 5
M  V30 5 1 3 6
M  V30 6 2 4 7
M  V30 7 2 5 8
M  V30 8 2 5 9
M  V30 9 1 5 10
M  V30 10 2 6 11
M  V30 11 1 11 12
M  V30 12 2 12 13
M  V30 13 1 12 14
M  V30 14 1 14 15
M  V30 15 1 15 16
M  V30 16 1 17 15
M  V30 17 2 16 18
M  V30 18 1 16 19
M  V30 19 1 17 20
M  V30 20 1 17 21 CFG=1
M  V30 21 1 18 22
M  V30 22 2 19 23
M  V30 23 2 22 24
M  V30 24 1 7 11
M  V30 25 1 18 20
M  V30 26 1 23 24
M  V30 END BOND
M  V30 BEGIN COLLECTION
M  V30 MDLV30/STERAC1 ATOMS=(1 17)
M  V30 END COLLECTION
M  V30 END CTAB
M  END
>  <Molecule Name>


>  <status>
-

>  <cas>
26807-65-8

>  <name>
INDAPAMIDE

>  <ID>
514

>  <Smiles>
CC(Cc1c2cccc1)N2NC(c(cc1)cc(S(N)(=O)=O)c1Cl)=O

$$$$

Actelion Java MolfileCreator 2.0

  0  0  0  0  0  0              0 V3000
M  V30 BEGIN CTAB
M  V30 COUNTS 15 14 0 0 0
M  V30 BEGIN ATOM
M  V30 1 O 2.598 -3.0 0.0 0
M  V30 2 N 2.598 -2.0 0.0 0 CHG=1
M  V30 3 O 3.4641 -1.5 0.0 0
M  V30 4 O 1.732 -1.5 0.0 0 CHG=-1
M  V30 5 C 3.4641 -0.5 0.0 0
M  V30 6 C 4.3301 0.0 0.0 0
M  V30 7 C 2.598 0.0 0.0 0
M  V30 8 O 5.1961 -0.5 0.0 0
M  V30 9 O 1.732 -0.5 0.0 0
M  V30 10 N 6.0621 0.0 0.0 0 CHG=1
M  V30 11 N 0.866 0.0 0.0 0 CHG=1
M  V30 12 O 6.9282 -0.5 0.0 0
M  V30 13 O 6.0621 0.9999 0.0 0 CHG=-1
M  V30 14 O 0.866 1.0 0.0 0
M  V30 15 O 0.0 -0.5 0.0 0 CHG=-1
M  V30 END ATOM
M  V30 BEGIN BOND
M  V30 1 2 1 2
M  V30 2 1 2 3
M  V30 3 1 2 4
M  V30 4 1 3 5
M  V30 5 1 5 6
M  V30 6 1 5 7
M  V30 7 1 6 8
M  V30 8 1 7 9
M  V30 9 1 8 10
M  V30 10 1 9 11
M  V30 11 2 10 12
M  V30 12 1 10 13
M  V30 13 2 11 14
M  V30 14 1 11 15
M  V30 END BOND
M  V30 END CTAB
M  END
>  <Molecule Name>


>  <status>
-

>  <cas>
55-63-0

>  <name>
NITROGLYCERIN

>  <ID>
515

>  <Smiles>
[O-][N+](OCC(CO[N+]([O-])=O)O[N+]([O-])=O)=O

$$$$

Actelion Java MolfileCreator 2.0

  0  0  0  0  0  0              0 V3000
M  V30 BEGIN CTAB
M  V30 COUNTS 36 40 0 0 0
M  V30 BEGIN ATOM
M  V30 1 Cl 1.7053 0.8895 0.0 0
M  V30 2 C 2.0637 1.8231 0.0 0
M  V30 3 C 3.0514 1.9795 0.0 0
M  V30 4 C 1.4344 2.6002 0.0 0
M  V30 5 C 3.4097 2.9131 0.0 0
M  V30 6 C 3.6807 1.2024 0.0 0 CFG=2
M  V30 7 C 1.7927 3.5338 0.0 0
M  V30 8 C 2.7804 3.6903 0.0 0
M  V30 9 O 2.7026 0.9945 0.0 0
M  V30 10 O 4.1807 0.3364 0.0 0
M  V30 11 C 4.0874 2.1159 0.0 0
M  V30 12 Cl 1.1634 4.311 0.0 0
M  V30 13 C 2.598 0.0 0.0 0 CFG=2
M  V30 14 C 3.5116 -0.4067 0.0 0
M  V30 15 N 5.082 2.2205 0.0 0
M  V30 16 C 1.732 -0.5 0.0 0
M  V30 17 C 5.7511 1.4773 0.0 0
M  V30 18 C 5.582 3.0865 0.0 0
M  V30 19 O 0.866 0.0 0.0 0
M  V30 20 N 6.6646 1.884 0.0 0
M  V30 21 C 6.5601 2.8786 0.0 0
M  V30 22 C 0.0 -0.5 0.0 0
M  V30 23 C -0.866 0.0 0.0 0
M  V30 24 C 0.0 -1.4999 0.0 0
M  V30 25 C -1.732 -0.4999 0.0 0
M  V30 26 C -0.866 -1.9999 0.0 0
M  V30 27 C -1.732 -1.4999 0.0 0
M  V30 28 N -2.598 -1.9999 0.0 0
M  V30 29 C -3.4641 -1.4999 0.0 0
M  V30 30 C -2.598 -2.9999 0.0 0
M  V30 31 C -4.3301 -1.9999 0.0 0
M  V30 32 C -3.4641 -3.4999 0.0 0
M  V30 33 N -4.3301 -2.9999 0.0 0
M  V30 34 C -5.1961 -3.4999 0.0 0
M  V30 35 O -6.0621 -2.9999 0.0 0
M  V30 36 C -5.1961 -4.4999 0.0 0
M  V30 END ATOM
M  V30 BEGIN BOND
M  V30 1 1 1 2
M  V30 2 2 2 3
M  V30 3 1 2 4
M  V30 4 1 3 5
M  V30 5 1 6 3
M  V30 6 2 4 7
M  V30 7 2 5 8
M  V30 8 1 6 9
M  V30 9 1 6 10
M  V30 10 1 6 11 CFG=3
M  V30 11 1 7 12
M  V30 12 1 13 9
M  V30 13 1 10 14
M  V30 14 1 11 15
M  V30 15 1 13 16 CFG=3
M  V30 16 1 15 17
M  V30 17 1 15 18
M  V30 18 1 16 19
M  V30 19 2 17 20
M  V30 20 2 18 21
M  V30 21 1 19 22
M  V30 22 2 22 23
M  V30 23 1 22 24
M  V30 24 1 23 25
M  V30 25 2 24 26
M  V30 26 2 25 27
M  V30 27 1 27 28
M  V30 28 1 28 29
M  V30 29 1 28 30
M  V30 30 1 29 31
M  V30 31 1 30 32
M  V30 32 1 31 33
M  V30 33 1 33 34
M  V30 34 2 34 35
M  V30 35 1 34 36
M  V30 36 1 7 8
M  V30 37 1 13 14
M  V30 38 1 20 21
M  V30 39 1 26 27
M  V30 40 1 32 33
M  V30 END BOND
M  V30 BEGIN COLLECTION
M  V30 MDLV30/STERAC1 ATOMS=(2 6 13)
M  V30 END COLLECTION
M  V30 END CTAB
M  END
>  <Molecule Name>


>  <status>
-

>  <cas>
65277-42-1

>  <name>
KETOCONAZOLE

>  <ID>
516

>  <Smiles>
CC(N(CC1)CCN1c(cc1)ccc1OC[C@@H]1O[C@@](Cn2cncc2)(c(ccc(Cl)c2)c2Cl)OC1)=O

$$$$

Actelion Java MolfileCreator 2.0

  0  0  0  0  0  0              0 V3000
M  V30 BEGIN CTAB
M  V30 COUNTS 24 26 0 0 0
M  V30 BEGIN ATOM
M  V30 1 Cl 5.1961 1.5 0.0 0
M  V30 2 C 4.3301 1.0 0.0 0
M  V30 3 C 3.4641 1.5 0.0 0
M  V30 4 C 4.3301 0.0 0.0 0
M  V30 5 S 3.4641 2.5 0.0 0
M  V30 6 C 2.598 0.9999 0.0 0
M  V30 7 C 3.4641 -0.4999 0.0 0
M  V30 8 O 4.4641 2.5 0.0 0
M  V30 9 O 2.4641 2.5 0.0 0
M  V30 10 N 3.4641 3.5 0.0 0
M  V30 11 C 2.598 0.0 0.0 0
M  V30 12 C 1.732 -0.5 0.0 0
M  V30 13 O 1.732 -1.5 0.0 0
M  V30 14 N 0.866 0.0 0.0 0
M  V30 15 N 0.0 -0.5 0.0 0
M  V30 16 C -0.9135 -0.0932 0.0 0
M  V30 17 C -0.1045 -1.4945 0.0 0 CFG=2
M  V30 18 C -1.5826 -0.8364 0.0 0
M  V30 19 C -1.2225 0.8577 0.0 0
M  V30 20 C -1.0826 -1.7024 0.0 0
M  V30 21 C 0.6386 -2.1636 0.0 0
M  V30 22 C -2.5608 -0.6284 0.0 0
M  V30 23 C -2.2007 1.0657 0.0 0
M  V30 24 C -2.8698 0.3225 0.0 0
M  V30 END ATOM
M  V30 BEGIN BOND
M  V30 1 1 1 2
M  V30 2 2 2 3
M  V30 3 1 2 4
M  V30 4 1 3 5
M  V30 5 1 3 6
M  V30 6 2 4 7
M  V30 7 2 5 8
M  V30 8 2 5 9
M  V30 9 1 5 10
M  V30 10 2 6 11
M  V30 11 1 11 12
M  V30 12 2 12 13
M  V30 13 1 12 14
M  V30 14 1 14 15
M  V30 15 1 15 16
M  V30 16 1 17 15
M  V30 17 2 16 18
M  V30 18 1 16 19
M  V30 19 1 17 20
M  V30 20 1 17 21 CFG=1
M  V30 21 1 18 22
M  V30 22 2 19 23
M  V30 23 2 22 24
M  V30 24 1 7 11
M  V30 25 1 18 20
M  V30 26 1 23 24
M  V30 END BOND
M  V30 BEGIN COLLECTION
M  V30 MDLV30/STERAC1 ATOMS=(1 17)
M  V30 END COLLECTION
M  V30 END CTAB
M  END
>  <Molecule Name>


>  <status>
-

>  <cas>
26807-65-8

>  <name>
INDAPAMIDE

>  <ID>
517

>  <Smiles>
CC(Cc1c2cccc1)N2NC(c(cc1)cc(S(N)(=O)=O)c1Cl)=O

$$$$

Actelion Java MolfileCreator 2.0

  0  0  0  0  0  0              0 V3000
M  V30 BEGIN CTAB
M  V30 COUNTS 19 21 0 0 0
M  V30 BEGIN ATOM
M  V30 1 Cl 7.6501 2.269 0.0 0
M  V30 2 C 6.6555 2.3736 0.0 0
M  V30 3 C 6.0677 1.5646 0.0 0
M  V30 4 C 6.2488 3.2871 0.0 0
M  V30 5 C 5.0732 1.6691 0.0 0
M  V30 6 C 5.2543 3.3916 0.0 0
M  V30 7 C 4.6665 2.5826 0.0 0
M  V30 8 C 4.3301 1.0 0.0 0
M  V30 9 N 3.672 2.4781 0.0 0
M  V30 10 C 3.4641 1.5 0.0 0
M  V30 11 C 4.3301 0.0 0.0 0
M  V30 12 C 2.598 0.9999 0.0 0
M  V30 13 C 3.4641 -0.4999 0.0 0
M  V30 14 C 2.598 0.0 0.0 0
M  V30 15 C 1.732 -0.5 0.0 0 CFG=2
M  V30 16 C 0.866 0.0 0.0 0
M  V30 17 C 1.732 -1.5 0.0 0
M  V30 18 O 0.866 1.0 0.0 0
M  V30 19 O 0.0 -0.5 0.0 0 CHG=-1
M  V30 END ATOM
M  V30 BEGIN BOND
M  V30 1 1 1 2
M  V30 2 2 2 3
M  V30 3 1 2 4
M  V30 4 1 3 5
M  V30 5 2 4 6
M  V30 6 2 5 7
M  V30 7 1 5 8
M  V30 8 1 7 9
M  V30 9 2 8 10
M  V30 10 1 8 11
M  V30 11 1 10 12
M  V30 12 2 11 13
M  V30 13 2 12 14
M  V30 14 1 15 14
M  V30 15 1 15 16
M  V30 16 1 15 17 CFG=1
M  V30 17 2 16 18
M  V30 18 1 16 19
M  V30 19 1 6 7
M  V30 20 1 9 10
M  V30 21 1 13 14
M  V30 END BOND
M  V30 BEGIN COLLECTION
M  V30 MDLV30/STERAC1 ATOMS=(1 15)
M  V30 END COLLECTION
M  V30 END CTAB
M  END
>  <Molecule Name>


>  <status>
DISCONTINUED

>  <cas>
53716-49-7

>  <name>
CARPROFEN

>  <ID>
518

>  <Smiles>
CC(C([O-])=O)c(cc1)cc2c1c(cc(cc1)Cl)c1[nH]2

$$$$

Actelion Java MolfileCreator 2.0

  0  0  0  0  0  0              0 V3000
M  V30 BEGIN CTAB
M  V30 COUNTS 19 19 0 0 0
M  V30 BEGIN ATOM
M  V30 1 F 5.3301 -3.0 0.0 0
M  V30 2 C 4.3301 -2.9999 0.0 0
M  V30 3 F 4.3301 -3.9999 0.0 0
M  V30 4 F 3.3301 -2.9999 0.0 0
M  V30 5 C 4.3301 -1.9999 0.0 0
M  V30 6 C 5.1961 -1.5 0.0 0
M  V30 7 C 3.4641 -1.5 0.0 0
M  V30 8 N 6.0621 -2.0 0.0 0 CHG=1
M  V30 9 C 5.1961 -0.5 0.0 0
M  V30 10 C 3.4641 -0.5 0.0 0
M  V30 11 O 6.0621 -3.0 0.0 0
M  V30 12 O 6.9282 -1.5 0.0 0 CHG=-1
M  V30 13 C 4.3301 0.0 0.0 0
M  V30 14 N 2.598 0.0 0.0 0
M  V30 15 C 1.732 -0.5 0.0 0
M  V30 16 O 1.732 -1.5 0.0 0
M  V30 17 C 0.866 0.0 0.0 0
M  V30 18 C 0.866 1.0 0.0 0
M  V30 19 C 0.0 -0.5 0.0 0
M  V30 END ATOM
M  V30 BEGIN BOND
M  V30 1 1 1 2
M  V30 2 1 2 3
M  V30 3 1 2 4
M  V30 4 1 2 5
M  V30 5 2 5 6
M  V30 6 1 5 7
M  V30 7 1 6 8
M  V30 8 1 6 9
M  V30 9 2 7 10
M  V30 10 2 8 11
M  V30 11 1 8 12
M  V30 12 2 9 13
M  V30 13 1 10 14
M  V30 14 1 14 15
M  V30 15 2 15 16
M  V30 16 1 15 17
M  V30 17 1 17 18
M  V30 18 1 17 19
M  V30 19 1 10 13
M  V30 END BOND
M  V30 END CTAB
M  END
>  <Molecule Name>


>  <status>
-

>  <cas>
13311-84-7

>  <name>
FLUTAMIDE

>  <ID>
519

>  <Smiles>
CC(C)C(Nc(cc1)cc(C(F)(F)F)c1[N+]([O-])=O)=O

$$$$

Actelion Java MolfileCreator 2.0

  0  0  0  0  0  0              0 V3000
M  V30 BEGIN CTAB
M  V30 COUNTS 21 22 0 0 0
M  V30 BEGIN ATOM
M  V30 1 O 7.7942 -2.0 0.0 0
M  V30 2 C 6.9282 -1.5 0.0 0
M  V30 3 C 6.9282 -0.5 0.0 0
M  V30 4 C 6.0621 -2.0 0.0 0
M  V30 5 C 6.0621 0.0 0.0 0
M  V30 6 C 5.1961 -1.5 0.0 0
M  V30 7 C 5.1961 -0.5 0.0 0
M  V30 8 C 4.3301 0.0 0.0 0 CFG=1
M  V30 9 O 4.3301 1.0 0.0 0
M  V30 10 C 3.4641 -0.5 0.0 0 CFG=1
M  V30 11 N 2.598 0.0 0.0 0
M  V30 12 C 3.4641 -1.5 0.0 0
M  V30 13 C 1.732 -0.5 0.0 0
M  V30 14 C 0.866 0.0 0.0 0
M  V30 15 C 0.0 -0.5 0.0 0
M  V30 16 C -0.866 0.0 0.0 0
M  V30 17 C 0.0 -1.4999 0.0 0
M  V30 18 C -1.732 -0.4999 0.0 0
M  V30 19 C -0.866 -1.9999 0.0 0
M  V30 20 C -1.732 -1.4999 0.0 0
M  V30 21 O -2.598 -1.9999 0.0 0
M  V30 END ATOM
M  V30 BEGIN BOND
M  V30 1 1 1 2
M  V30 2 2 2 3
M  V30 3 1 2 4
M  V30 4 1 3 5
M  V30 5 2 4 6
M  V30 6 2 5 7
M  V30 7 1 8 7
M  V30 8 1 8 9 CFG=3
M  V30 9 1 10 8
M  V30 10 1 10 11 CFG=3
M  V30 11 1 10 12
M  V30 12 1 11 13
M  V30 13 1 13 14
M  V30 14 1 14 15
M  V30 15 2 15 16
M  V30 16 1 15 17
M  V30 17 1 16 18
M  V30 18 2 17 19
M  V30 19 2 18 20
M  V30 20 1 20 21
M  V30 21 1 6 7
M  V30 22 1 19 20
M  V30 END BOND
M  V30 BEGIN COLLECTION
M  V30 MDLV30/STERAC1 ATOMS=(2 8 10)
M  V30 END COLLECTION
M  V30 END CTAB
M  END
>  <Molecule Name>


>  <status>
DISCONTINUED

>  <cas>
26652-09-5

>  <name>
RITODRINE

>  <ID>
520

>  <Smiles>
C[C@@H]([C@@H](c(cc1)ccc1O)O)NCCc(cc1)ccc1O

$$$$

Actelion Java MolfileCreator 2.0

  0  0  0  0  0  0              0 V3000
M  V30 BEGIN CTAB
M  V30 COUNTS 21 22 0 0 0
M  V30 BEGIN ATOM
M  V30 1 S 2.598 -0.75 0.0 0
M  V30 2 O 1.848 -2.049 0.0 0
M  V30 3 O 3.348 -2.049 0.0 0
M  V30 4 N 1.299 0.0 0.0 0
M  V30 5 C 3.8971 0.0 0.0 0
M  V30 6 C 0.0 -0.75 0.0 0
M  V30 7 C 5.1961 -0.75 0.0 0
M  V30 8 C 3.8971 1.5 0.0 0
M  V30 9 N 0.0 -2.25 0.0 0
M  V30 10 C -1.299 0.0 0.0 0
M  V30 11 C 6.4952 0.0 0.0 0
M  V30 12 C 5.1961 2.25 0.0 0
M  V30 13 C -1.299 -3.0 0.0 0
M  V30 14 O -1.299 1.5 0.0 0
M  V30 15 C -2.598 -0.75 0.0 0
M  V30 16 C 6.4952 1.5 0.0 0
M  V30 17 N -2.598 -2.25 0.0 0
M  V30 18 C 0.0 2.25 0.0 0
M  V30 19 O -3.8971 0.0 0.0 0
M  V30 20 N 7.7942 2.25 0.0 0
M  V30 21 C -3.8971 1.5 0.0 0
M  V30 END ATOM
M  V30 BEGIN BOND
M  V30 1 2 1 2
M  V30 2 2 1 3
M  V30 3 1 1 4
M  V30 4 1 1 5
M  V30 5 1 4 6
M  V30 6 2 5 7
M  V30 7 1 5 8
M  V30 8 2 6 9
M  V30 9 1 6 10
M  V30 10 1 7 11
M  V30 11 2 8 12
M  V30 12 1 9 13
M  V30 13 1 10 14
M  V30 14 2 10 15
M  V30 15 2 11 16
M  V30 16 2 13 17
M  V30 17 1 14 18
M  V30 18 1 15 19
M  V30 19 1 16 20
M  V30 20 1 19 21
M  V30 21 1 12 16
M  V30 22 1 15 17
M  V30 END BOND
M  V30 END CTAB
M  END
>  <Molecule Name>


>  <status>
DISCONTINUED

>  <cas>
2447-57-6

>  <name>
SULFADOXINE

>  <ID>
521

>  <Smiles>
COc(c(NS(c(cc1)ccc1N)(=O)=O)ncn1)c1OC

$$$$

Actelion Java MolfileCreator 2.0

  0  0  0  0  0  0              0 V3000
M  V30 BEGIN CTAB
M  V30 COUNTS 14 14 0 0 0
M  V30 BEGIN ATOM
M  V30 1 Cl 5.1961 2.2499 0.0 0
M  V30 2 C 6.4951 1.5 0.0 0
M  V30 3 C 6.4951 0.0 0.0 0
M  V30 4 C 7.7942 2.25 0.0 0
M  V30 5 C 7.7942 -0.7499 0.0 0
M  V30 6 C 5.1961 -0.75 0.0 0
M  V30 7 C 9.0932 1.5 0.0 0
M  V30 8 Cl 7.7942 -2.2499 0.0 0
M  V30 9 C 9.0932 0.0 0.0 0
M  V30 10 N 3.8971 0.0 0.0 0
M  V30 11 N 3.8971 1.4999 0.0 0
M  V30 12 C 2.598 2.2499 0.0 0
M  V30 13 N 1.299 1.4999 0.0 0 CHG=1
M  V30 14 N 2.598 3.75 0.0 0
M  V30 END ATOM
M  V30 BEGIN BOND
M  V30 1 1 1 2
M  V30 2 2 2 3
M  V30 3 1 2 4
M  V30 4 1 3 5
M  V30 5 1 3 6
M  V30 6 2 4 7
M  V30 7 1 5 8
M  V30 8 2 5 9
M  V30 9 2 6 10
M  V30 10 1 10 11
M  V30 11 1 11 12
M  V30 12 2 12 13
M  V30 13 1 12 14
M  V30 14 1 7 9
M  V30 END BOND
M  V30 END CTAB
M  END
>  <Molecule Name>


>  <status>
DISCONTINUED

>  <cas>
5051-62-7

>  <name>
GUANABENZ

>  <ID>
522

>  <Smiles>
NC(N/N=C\c(c(Cl)ccc1)c1Cl)=[NH2+]

$$$$

Actelion Java MolfileCreator 2.0

  0  0  0  0  0  0              0 V3000
M  V30 BEGIN CTAB
M  V30 COUNTS 29 31 0 0 0
M  V30 BEGIN ATOM
M  V30 1 S 7.6668 -3.0425 0.0 0
M  V30 2 C 6.1836 -3.266 0.0 0
M  V30 3 C 8.4168 -1.7434 0.0 0 CFG=2
M  V30 4 C 5.084 -2.2458 0.0 0
M  V30 5 C 5.8498 -4.7284 0.0 0
M  V30 6 C 9.9126 -1.8555 0.0 0
M  V30 7 C 7.8688 -0.3471 0.0 0 CFG=2
M  V30 8 N 5.1961 -0.75 0.0 0
M  V30 9 C 3.6506 -2.6879 0.0 0
M  V30 10 C 4.4164 -5.1705 0.0 0
M  V30 11 C 10.5635 -3.207 0.0 0
M  V30 12 C 10.7576 -0.6162 0.0 0
M  V30 13 O 8.8891 0.7524 0.0 0
M  V30 14 C 6.4355 0.0949 0.0 0
M  V30 15 C 3.8971 0.0 0.0 0
M  V30 16 C 3.3169 -4.1503 0.0 0
M  V30 17 C 12.0593 -3.3191 0.0 0
M  V30 18 C 12.2534 -0.7282 0.0 0
M  V30 19 C 8.4469 2.1857 0.0 0
M  V30 20 O 6.2119 1.5782 0.0 0
M  V30 21 C 2.598 -0.75 0.0 0
M  V30 22 C 12.9042 -2.0797 0.0 0
M  V30 23 O 6.9846 2.5195 0.0 0
M  V30 24 C 9.4672 3.2853 0.0 0
M  V30 25 N 1.299 0.0 0.0 0
M  V30 26 O 14.4001 -2.1918 0.0 0
M  V30 27 C 1.299 1.5 0.0 0
M  V30 28 C 0.0 -0.75 0.0 0
M  V30 29 C 15.245 -0.9524 0.0 0
M  V30 END ATOM
M  V30 BEGIN BOND
M  V30 1 1 1 2
M  V30 2 1 3 1
M  V30 3 2 2 4
M  V30 4 1 2 5
M  V30 5 1 3 6 CFG=1
M  V30 6 1 7 3
M  V30 7 1 4 8
M  V30 8 1 4 9
M  V30 9 2 5 10
M  V30 10 2 6 11
M  V30 11 1 6 12
M  V30 12 1 7 13 CFG=1
M  V30 13 1 7 14
M  V30 14 1 8 15
M  V30 15 2 9 16
M  V30 16 1 11 17
M  V30 17 2 12 18
M  V30 18 1 13 19
M  V30 19 2 14 20
M  V30 20 1 15 21
M  V30 21 2 17 22
M  V30 22 2 19 23
M  V30 23 1 19 24
M  V30 24 1 21 25
M  V30 25 1 22 26
M  V30 26 1 25 27
M  V30 27 1 25 28
M  V30 28 1 26 29
M  V30 29 1 8 14
M  V30 30 1 10 16
M  V30 31 1 18 22
M  V30 END BOND
M  V30 BEGIN COLLECTION
M  V30 MDLV30/STERAC1 ATOMS=(2 3 7)
M  V30 END COLLECTION
M  V30 END CTAB
M  END
>  <Molecule Name>


>  <status>
-

>  <cas>
42399-41-7

>  <name>
DILTIAZEM

>  <ID>
523

>  <Smiles>
CC(O[C@@H]([C@@H](c(cc1)ccc1OC)Sc(cccc1)c1N1CCN(C)C)C1=O)=O

$$$$

Actelion Java MolfileCreator 2.0

  0  0  0  0  0  0              0 V3000
M  V30 BEGIN CTAB
M  V30 COUNTS 16 16 0 0 0
M  V30 BEGIN ATOM
M  V30 1 Cl 9.0932 0.0 0.0 0
M  V30 2 C 7.7942 -0.75 0.0 0
M  V30 3 C 6.4951 0.0 0.0 0
M  V30 4 C 7.7942 -2.2499 0.0 0
M  V30 5 C 5.1961 -0.75 0.0 0
M  V30 6 C 6.4951 -3.0 0.0 0
M  V30 7 C 3.8971 0.0 0.0 0
M  V30 8 C 5.1961 -2.2499 0.0 0
M  V30 9 O 3.8971 1.5 0.0 0
M  V30 10 C 2.598 -0.75 0.0 0 CFG=1
M  V30 11 N 1.299 0.0 0.0 0
M  V30 12 C 2.598 -2.25 0.0 0
M  V30 13 C 0.0 -0.75 0.0 0
M  V30 14 C 0.7499 -2.049 0.0 0
M  V30 15 C -1.299 -1.4999 0.0 0
M  V30 16 C -0.7499 0.549 0.0 0
M  V30 END ATOM
M  V30 BEGIN BOND
M  V30 1 1 1 2
M  V30 2 2 2 3
M  V30 3 1 2 4
M  V30 4 1 3 5
M  V30 5 2 4 6
M  V30 6 1 5 7
M  V30 7 2 5 8
M  V30 8 2 7 9
M  V30 9 1 10 7
M  V30 10 1 10 11 CFG=3
M  V30 11 1 10 12
M  V30 12 1 11 13
M  V30 13 1 13 14
M  V30 14 1 13 15
M  V30 15 1 13 16
M  V30 16 1 6 8
M  V30 END BOND
M  V30 BEGIN COLLECTION
M  V30 MDLV30/STERAC1 ATOMS=(1 10)
M  V30 END COLLECTION
M  V30 END CTAB
M  END
>  <Molecule Name>


>  <status>
-

>  <cas>
34911-55-2

>  <name>
BUPROPION

>  <ID>
524

>  <Smiles>
CC(C(c1cccc(Cl)c1)=O)NC(C)(C)C

$$$$

Actelion Java MolfileCreator 2.0

  0  0  0  0  0  0              0 V3000
M  V30 BEGIN CTAB
M  V30 COUNTS 16 17 0 0 0
M  V30 BEGIN ATOM
M  V30 1 O 7.56 0.8716 0.0 0
M  V30 2 C 6.8909 0.1284 0.0 0
M  V30 3 N 7.1999 -0.8225 0.0 0
M  V30 4 C 5.9128 0.3364 0.0 0
M  V30 5 C 6.5308 -1.5657 0.0 0
M  V30 6 N 5.4128 1.2024 0.0 0
M  V30 7 C 5.2436 -0.4067 0.0 0
M  V30 8 N 5.5526 -1.3577 0.0 0
M  V30 9 N 6.8398 -2.5167 0.0 0
M  V30 10 C 4.4346 0.9945 0.0 0
M  V30 11 N 4.3301 0.0 0.0 0
M  V30 12 C 3.4641 -0.5 0.0 0
M  V30 13 O 2.598 0.0 0.0 0
M  V30 14 C 1.732 -0.5 0.0 0
M  V30 15 C 0.866 0.0 0.0 0
M  V30 16 O 0.0 -0.5 0.0 0
M  V30 END ATOM
M  V30 BEGIN BOND
M  V30 1 2 1 2
M  V30 2 1 2 3
M  V30 3 1 2 4
M  V30 4 1 3 5
M  V30 5 1 4 6
M  V30 6 2 4 7
M  V30 7 2 5 8
M  V30 8 1 5 9
M  V30 9 2 6 10
M  V30 10 1 7 11
M  V30 11 1 11 12
M  V30 12 1 12 13
M  V30 13 1 13 14
M  V30 14 1 14 15
M  V30 15 1 15 16
M  V30 16 1 7 8
M  V30 17 1 10 11
M  V30 END BOND
M  V30 END CTAB
M  END
>  <Molecule Name>


>  <status>
-

>  <cas>
59277-89-3

>  <name>
ACYCLOVIR

>  <ID>
525

>  <Smiles>
NC(NC1=O)=Nc2c1ncn2COCCO

$$$$

Actelion Java MolfileCreator 2.0

  0  0  0  0  0  0              0 V3000
M  V30 BEGIN CTAB
M  V30 COUNTS 23 25 0 0 0
M  V30 BEGIN ATOM
M  V30 1 Cl 0.866 0.9999 0.0 0
M  V30 2 C 1.732 1.4999 0.0 0
M  V30 3 C 2.598 1.0 0.0 0
M  V30 4 C 1.732 2.4999 0.0 0
M  V30 5 C 3.4641 1.5 0.0 0
M  V30 6 C 2.598 0.0 0.0 0 CFG=1
M  V30 7 C 2.598 3.0 0.0 0
M  V30 8 C 3.4641 2.5 0.0 0
M  V30 9 O 1.732 -0.5 0.0 0
M  V30 10 C 3.4641 -0.5 0.0 0
M  V30 11 Cl 2.598 4.0 0.0 0
M  V30 12 C 0.866 0.0 0.0 0
M  V30 13 N 4.3301 0.0 0.0 0
M  V30 14 C 0.0 -0.5 0.0 0
M  V30 15 C 5.2436 -0.4067 0.0 0
M  V30 16 C 4.4346 0.9945 0.0 0
M  V30 17 C -0.9135 -0.0932 0.0 0
M  V30 18 C -0.1045 -1.4945 0.0 0
M  V30 19 N 5.9128 0.3364 0.0 0
M  V30 20 C 5.4128 1.2024 0.0 0
M  V30 21 Cl -1.1214 0.8848 0.0 0
M  V30 22 S -1.5826 -0.8364 0.0 0
M  V30 23 C -1.0826 -1.7024 0.0 0
M  V30 END ATOM
M  V30 BEGIN BOND
M  V30 1 1 1 2
M  V30 2 2 2 3
M  V30 3 1 2 4
M  V30 4 1 3 5
M  V30 5 1 6 3
M  V30 6 2 4 7
M  V30 7 2 5 8
M  V30 8 1 6 9 CFG=3
M  V30 9 1 6 10
M  V30 10 1 7 11
M  V30 11 1 9 12
M  V30 12 1 10 13
M  V30 13 1 12 14
M  V30 14 1 13 15
M  V30 15 1 13 16
M  V30 16 2 14 17
M  V30 17 1 14 18
M  V30 18 2 15 19
M  V30 19 2 16 20
M  V30 20 1 17 21
M  V30 21 1 17 22
M  V30 22 2 18 23
M  V30 23 1 7 8
M  V30 24 1 19 20
M  V30 25 1 22 23
M  V30 END BOND
M  V30 BEGIN COLLECTION
M  V30 MDLV30/STERAC1 ATOMS=(1 6)
M  V30 END COLLECTION
M  V30 END CTAB
M  END
>  <Molecule Name>


>  <status>
-

>  <cas>
65899-73-2

>  <name>
TIOCONAZOLE

>  <ID>
526

>  <Smiles>
Clc1c(COC(Cn2cncc2)c(ccc(Cl)c2)c2Cl)ccs1

$$$$

Actelion Java MolfileCreator 2.0

  0  0  0  0  0  0              0 V3000
M  V30 BEGIN CTAB
M  V30 COUNTS 20 21 0 0 0
M  V30 BEGIN ATOM
M  V30 1 O 9.0932 1.5 0.0 0
M  V30 2 C 9.0932 0.0 0.0 0
M  V30 3 N 7.7942 -0.75 0.0 0
M  V30 4 N 10.3923 -0.7499 0.0 0
M  V30 5 C 7.7942 -2.25 0.0 0
M  V30 6 C 6.4951 0.0 0.0 0
M  V30 7 C 10.3923 -2.2499 0.0 0
M  V30 8 C 11.6913 0.0 0.0 0
M  V30 9 O 6.4951 -3.0 0.0 0
M  V30 10 C 9.0932 -2.9999 0.0 0
M  V30 11 C 5.1961 -0.75 0.0 0
M  V30 12 N 11.507 -3.2536 0.0 0
M  V30 13 N 9.4051 -4.4672 0.0 0
M  V30 14 C 3.8971 0.0 0.0 0
M  V30 15 C 10.8969 -4.624 0.0 0
M  V30 16 C 8.4014 -5.5819 0.0 0
M  V30 17 C 2.598 -0.75 0.0 0
M  V30 18 C 1.299 0.0 0.0 0
M  V30 19 O 1.299 1.5 0.0 0
M  V30 20 C 0.0 -0.75 0.0 0
M  V30 END ATOM
M  V30 BEGIN BOND
M  V30 1 2 1 2
M  V30 2 1 2 3
M  V30 3 1 2 4
M  V30 4 1 3 5
M  V30 5 1 3 6
M  V30 6 1 4 7
M  V30 7 1 4 8
M  V30 8 2 5 9
M  V30 9 1 5 10
M  V30 10 1 6 11
M  V30 11 1 7 12
M  V30 12 1 10 13
M  V30 13 1 11 14
M  V30 14 2 12 15
M  V30 15 1 13 16
M  V30 16 1 14 17
M  V30 17 1 17 18
M  V30 18 2 18 19
M  V30 19 1 18 20
M  V30 20 2 7 10
M  V30 21 1 13 15
M  V30 END BOND
M  V30 END CTAB
M  END
>  <Molecule Name>


>  <status>
-

>  <cas>
6493-05-6

>  <name>
PENTOXIFYLLINE

>  <ID>
527

>  <Smiles>
CC(CCCCN(C(c1c(N2C)ncn1C)=O)C2=O)=O

$$$$

Actelion Java MolfileCreator 2.0

  0  0  0  0  0  0              0 V3000
M  V30 BEGIN CTAB
M  V30 COUNTS 16 16 0 0 0
M  V30 BEGIN ATOM
M  V30 1 Cl 9.0932 0.0 0.0 0
M  V30 2 C 7.7942 -0.75 0.0 0
M  V30 3 C 6.4951 0.0 0.0 0
M  V30 4 C 7.7942 -2.2499 0.0 0
M  V30 5 C 5.1961 -0.75 0.0 0
M  V30 6 C 6.4951 -3.0 0.0 0
M  V30 7 C 3.8971 0.0 0.0 0
M  V30 8 C 5.1961 -2.2499 0.0 0
M  V30 9 O 3.8971 1.5 0.0 0
M  V30 10 C 2.598 -0.75 0.0 0 CFG=1
M  V30 11 N 1.299 0.0 0.0 0
M  V30 12 C 2.598 -2.25 0.0 0
M  V30 13 C 0.0 -0.75 0.0 0
M  V30 14 C 0.7499 -2.049 0.0 0
M  V30 15 C -1.299 -1.4999 0.0 0
M  V30 16 C -0.7499 0.549 0.0 0
M  V30 END ATOM
M  V30 BEGIN BOND
M  V30 1 1 1 2
M  V30 2 2 2 3
M  V30 3 1 2 4
M  V30 4 1 3 5
M  V30 5 2 4 6
M  V30 6 1 5 7
M  V30 7 2 5 8
M  V30 8 2 7 9
M  V30 9 1 10 7
M  V30 10 1 10 11 CFG=3
M  V30 11 1 10 12
M  V30 12 1 11 13
M  V30 13 1 13 14
M  V30 14 1 13 15
M  V30 15 1 13 16
M  V30 16 1 6 8
M  V30 END BOND
M  V30 BEGIN COLLECTION
M  V30 MDLV30/STERAC1 ATOMS=(1 10)
M  V30 END COLLECTION
M  V30 END CTAB
M  END
>  <Molecule Name>


>  <status>
-

>  <cas>
34911-55-2

>  <name>
BUPROPION

>  <ID>
528

>  <Smiles>
CC(C(c1cccc(Cl)c1)=O)NC(C)(C)C

$$$$

Actelion Java MolfileCreator 2.0

  0  0  0  0  0  0              0 V3000
M  V30 BEGIN CTAB
M  V30 COUNTS 23 26 0 0 0
M  V30 BEGIN ATOM
M  V30 1 Cl 1.9882 -4.3928 0.0 0
M  V30 2 C 1.9733 -3.393 0.0 0
M  V30 3 C 2.8317 -2.8801 0.0 0
M  V30 4 C 1.0998 -2.906 0.0 0
M  V30 5 C 2.8167 -1.8802 0.0 0
M  V30 6 C 1.0849 -1.9061 0.0 0
M  V30 7 C 3.7421 -1.5009 0.0 0
M  V30 8 C 1.9433 -1.3932 0.0 0
M  V30 9 N 4.0225 -0.5411 0.0 0
M  V30 10 C 4.4852 -2.1701 0.0 0
M  V30 11 N 1.7795 -0.4067 0.0 0
M  V30 12 C 3.4469 0.2766 0.0 0
M  V30 13 C 5.4363 -1.8611 0.0 0
M  V30 14 C 4.2773 -3.1482 0.0 0
M  V30 15 C 2.4487 0.3364 0.0 0
M  V30 16 C 0.866 0.0 0.0 0
M  V30 17 F 5.6442 -0.8829 0.0 0
M  V30 18 C 6.1794 -2.5302 0.0 0
M  V30 19 C 5.0204 -3.8173 0.0 0
M  V30 20 C 1.9487 1.2024 0.0 0
M  V30 21 N 0.9705 0.9945 0.0 0
M  V30 22 C 0.0 -0.5 0.0 0
M  V30 23 C 5.9715 -3.5083 0.0 0
M  V30 END ATOM
M  V30 BEGIN BOND
M  V30 1 1 1 2
M  V30 2 2 2 3
M  V30 3 1 2 4
M  V30 4 1 3 5
M  V30 5 2 4 6
M  V30 6 1 5 7
M  V30 7 2 5 8
M  V30 8 2 7 9
M  V30 9 1 7 10
M  V30 10 1 8 11
M  V30 11 1 9 12
M  V30 12 2 10 13
M  V30 13 1 10 14
M  V30 14 1 11 15
M  V30 15 1 11 16
M  V30 16 1 13 17
M  V30 17 1 13 18
M  V30 18 2 14 19
M  V30 19 2 15 20
M  V30 20 2 16 21
M  V30 21 1 16 22
M  V30 22 2 18 23
M  V30 23 1 6 8
M  V30 24 1 12 15
M  V30 25 1 19 23
M  V30 26 1 20 21
M  V30 END BOND
M  V30 END CTAB
M  END
>  <Molecule Name>


>  <status>
-

>  <cas>
59467-70-8

>  <name>
MIDAZOLAM

>  <ID>
529

>  <Smiles>
Cc1ncc2n1-c(ccc(Cl)c1)c1C(c(cccc1)c1F)=NC2

$$$$

Actelion Java MolfileCreator 2.0

  0  0  0  0  0  0              0 V3000
M  V30 BEGIN CTAB
M  V30 COUNTS 22 22 0 0 0
M  V30 BEGIN ATOM
M  V30 1 O 11.6913 -3.0 0.0 0
M  V30 2 C 10.3923 -2.25 0.0 0
M  V30 3 O 9.0932 -3.0 0.0 0 CHG=-1
M  V30 4 C 10.3923 -0.75 0.0 0
M  V30 5 C 9.0932 0.0 0.0 0
M  V30 6 C 7.7942 -0.75 0.0 0
M  V30 7 C 9.0932 1.5 0.0 0
M  V30 8 C 6.4952 0.0 0.0 0
M  V30 9 C 5.1961 -0.75 0.0 0
M  V30 10 C 3.8971 0.0 0.0 0
M  V30 11 C 2.598 -0.75 0.0 0
M  V30 12 C 3.8971 1.5 0.0 0
M  V30 13 C 1.299 0.0 0.0 0
M  V30 14 C 0.0 -0.75 0.0 0
M  V30 15 C -1.299 0.0 0.0 0
M  V30 16 C 0.0 -2.25 0.0 0
M  V30 17 C -2.598 -0.75 0.0 0
M  V30 18 C -1.299 1.5 0.0 0
M  V30 19 C -1.299 -3.0 0.0 0
M  V30 20 C 0.7499 -3.549 0.0 0
M  V30 21 C 1.4999 -2.2499 0.0 0
M  V30 22 C -2.598 -2.25 0.0 0
M  V30 END ATOM
M  V30 BEGIN BOND
M  V30 1 2 1 2
M  V30 2 1 2 3
M  V30 3 1 2 4
M  V30 4 2 4 5
M  V30 5 1 5 6
M  V30 6 1 5 7
M  V30 7 2 6 8
M  V30 8 1 8 9
M  V30 9 2 9 10
M  V30 10 1 10 11
M  V30 11 1 10 12
M  V30 12 2 11 13
M  V30 13 1 13 14
M  V30 14 2 14 15
M  V30 15 1 14 16
M  V30 16 1 15 17
M  V30 17 1 15 18
M  V30 18 1 16 19
M  V30 19 1 16 20
M  V30 20 1 16 21
M  V30 21 1 17 22
M  V30 22 1 19 22
M  V30 END BOND
M  V30 END CTAB
M  END
>  <Molecule Name>


>  <status>
-

>  <cas>
4759-48-2

>  <name>
ISOTRETINOIN

>  <ID>
530

>  <Smiles>
CC1(C)C(/C=C/C(/C)=C/C=C/C(/C)=C\C([O-])=O)=C(C)CCC1

$$$$

Actelion Java MolfileCreator 2.0

  0  0  0  0  0  0              0 V3000
M  V30 BEGIN CTAB
M  V30 COUNTS 23 26 0 0 0
M  V30 BEGIN ATOM
M  V30 1 O 10.8932 2.9303 0.0 0
M  V30 2 C 9.5136 2.3161 0.0 0
M  V30 3 C 9.3558 0.8142 0.0 0
M  V30 4 C 8.2919 3.2037 0.0 0
M  V30 5 C 7.9762 0.1999 0.0 0
M  V30 6 C 6.9123 2.5895 0.0 0
M  V30 7 C 6.7544 1.0876 0.0 0 CFG=2
M  V30 8 C 7.8183 -1.3019 0.0 0
M  V30 9 C 5.3748 0.4733 0.0 0 CFG=2
M  V30 10 C 6.4387 -1.9161 0.0 0
M  V30 11 C 5.217 -1.0284 0.0 0 CFG=1
M  V30 12 C 4.1531 1.361 0.0 0
M  V30 13 C 3.8374 -1.6427 0.0 0 CFG=1
M  V30 14 C 2.7735 0.7468 0.0 0
M  V30 15 C 2.6156 -0.755 0.0 0 CFG=2
M  V30 16 C 3.3707 -3.0789 0.0 0
M  V30 17 C 1.3939 -1.6427 0.0 0 CFG=2
M  V30 18 C 1.4033 0.0961 0.0 0
M  V30 19 C 1.8605 -3.0789 0.0 0
M  V30 20 O 0.9667 -0.3434 0.0 0
M  V30 21 C -0.0423 -1.176 0.0 0
M  V30 22 C 1.3078 1.5101 0.0 0
M  V30 23 C -1.4785 -0.7093 0.0 0
M  V30 END ATOM
M  V30 BEGIN BOND
M  V30 1 2 1 2
M  V30 2 1 2 3
M  V30 3 1 2 4
M  V30 4 2 3 5
M  V30 5 1 4 6
M  V30 6 1 7 5
M  V30 7 1 5 8
M  V30 8 1 9 7
M  V30 9 1 8 10
M  V30 10 1 11 9
M  V30 11 1 9 12 CFG=3
M  V30 12 1 13 11
M  V30 13 1 12 14
M  V30 14 1 15 13
M  V30 15 1 13 16 CFG=3
M  V30 16 1 17 15
M  V30 17 1 15 18 CFG=3
M  V30 18 1 16 19
M  V30 19 1 17 20 CFG=3
M  V30 20 1 17 21
M  V30 21 1 18 22
M  V30 22 3 21 23
M  V30 23 1 7 6 CFG=1
M  V30 24 1 11 10 CFG=1
M  V30 25 1 14 15
M  V30 26 1 17 19
M  V30 END BOND
M  V30 BEGIN COLLECTION
M  V30 MDLV30/STERAC1 ATOMS=(6 7 9 11 13 15 17)
M  V30 END COLLECTION
M  V30 END CTAB
M  END
>  <Molecule Name>


>  <status>
-

>  <cas>
797-63-7

>  <name>
LEVONORGESTREL

>  <ID>
531

>  <Smiles>
CC[C@](CC1)([C@@H](CC2)[C@H](CC3)[C@H]1[C@@H](CC1)C3=CC1=O)[C@@]2(C#C)O

$$$$

Actelion Java MolfileCreator 2.0

  0  0  0  0  0  0              0 V3000
M  V30 BEGIN CTAB
M  V30 COUNTS 21 22 0 0 0
M  V30 BEGIN ATOM
M  V30 1 Cl 1.732 1.4999 0.0 0
M  V30 2 C 2.598 1.0 0.0 0
M  V30 3 C 2.598 0.0 0.0 0
M  V30 4 C 3.4641 1.4999 0.0 0
M  V30 5 N 1.732 -0.5 0.0 0
M  V30 6 C 3.4641 -0.5 0.0 0
M  V30 7 C 4.3301 1.0 0.0 0
M  V30 8 C 0.866 0.0 0.0 0
M  V30 9 C 4.3301 0.0 0.0 0
M  V30 10 N 5.1961 1.5 0.0 0 CHG=1
M  V30 11 O 0.866 1.0 0.0 0
M  V30 12 C 0.0 -0.5 0.0 0
M  V30 13 O 6.0621 1.0 0.0 0
M  V30 14 O 5.1961 2.5 0.0 0 CHG=-1
M  V30 15 C -0.866 0.0 0.0 0
M  V30 16 C 0.0 -1.4999 0.0 0
M  V30 17 O -0.866 1.0 0.0 0
M  V30 18 C -1.732 -0.4999 0.0 0
M  V30 19 C -0.866 -1.9999 0.0 0
M  V30 20 C -1.732 -1.4999 0.0 0
M  V30 21 Cl -0.866 -2.9999 0.0 0
M  V30 END ATOM
M  V30 BEGIN BOND
M  V30 1 1 1 2
M  V30 2 2 2 3
M  V30 3 1 2 4
M  V30 4 1 3 5
M  V30 5 1 3 6
M  V30 6 2 4 7
M  V30 7 1 5 8
M  V30 8 2 6 9
M  V30 9 1 7 10
M  V30 10 2 8 11
M  V30 11 1 8 12
M  V30 12 2 10 13
M  V30 13 1 10 14
M  V30 14 2 12 15
M  V30 15 1 12 16
M  V30 16 1 15 17
M  V30 17 1 15 18
M  V30 18 2 16 19
M  V30 19 2 18 20
M  V30 20 1 19 21
M  V30 21 1 7 9
M  V30 22 1 19 20
M  V30 END BOND
M  V30 END CTAB
M  END
>  <Molecule Name>


>  <status>
DISCONTINUED

>  <cas>
50-65-7

>  <name>
NICLOSAMIDE

>  <ID>
532

>  <Smiles>
[O-][N+](c(cc1)cc(Cl)c1NC(c(cc(cc1)Cl)c1O)=O)=O

$$$$

Actelion Java MolfileCreator 2.0

  0  0  0  0  0  0              0 V3000
M  V30 BEGIN CTAB
M  V30 COUNTS 27 29 0 0 0
M  V30 BEGIN ATOM
M  V30 1 O 14.2894 6.0 0.0 0
M  V30 2 C 14.2894 4.5 0.0 0
M  V30 3 C 12.9904 3.75 0.0 0
M  V30 4 C 15.5885 3.75 0.0 0
M  V30 5 C 12.9904 2.25 0.0 0 CFG=2
M  V30 6 C 15.5885 2.25 0.0 0
M  V30 7 C 11.6913 1.5 0.0 0
M  V30 8 C 14.2894 1.5 0.0 0 CFG=2
M  V30 9 C 11.6913 0.0 0.0 0
M  V30 10 C 10.3923 2.25 0.0 0
M  V30 11 C 14.2894 0.0 0.0 0
M  V30 12 O 12.9904 -0.75 0.0 0
M  V30 13 C 10.3923 -0.75 0.0 0
M  V30 14 O 10.3923 3.75 0.0 0
M  V30 15 C 9.0932 1.5 0.0 0
M  V30 16 C 15.0394 -1.299 0.0 0
M  V30 17 C 15.7894 0.0 0.0 0
M  V30 18 C 9.0932 0.0 0.0 0
M  V30 19 C 7.7942 -0.75 0.0 0
M  V30 20 C 6.4952 0.0 0.0 0
M  V30 21 C 7.0442 -2.049 0.0 0
M  V30 22 C 8.5442 -2.049 0.0 0
M  V30 23 C 5.1961 -0.75 0.0 0
M  V30 24 C 3.8971 0.0 0.0 0
M  V30 25 C 2.598 -0.75 0.0 0
M  V30 26 C 1.299 0.0 0.0 0
M  V30 27 C 0.0 -0.75 0.0 0
M  V30 END ATOM
M  V30 BEGIN BOND
M  V30 1 2 1 2
M  V30 2 1 2 3
M  V30 3 1 2 4
M  V30 4 1 5 3 CFG=1
M  V30 5 1 4 6
M  V30 6 1 5 7
M  V30 7 1 8 5
M  V30 8 2 7 9
M  V30 9 1 7 10
M  V30 10 1 8 11
M  V30 11 1 9 12
M  V30 12 1 9 13
M  V30 13 1 10 14
M  V30 14 2 10 15
M  V30 15 1 11 16
M  V30 16 1 11 17
M  V30 17 2 13 18
M  V30 18 1 18 19
M  V30 19 1 19 20
M  V30 20 1 19 21
M  V30 21 1 19 22
M  V30 22 1 20 23
M  V30 23 1 23 24
M  V30 24 1 24 25
M  V30 25 1 25 26
M  V30 26 1 26 27
M  V30 27 1 8 6 CFG=3
M  V30 28 1 11 12
M  V30 29 1 15 18
M  V30 END BOND
M  V30 BEGIN COLLECTION
M  V30 MDLV30/STERAC1 ATOMS=(2 5 8)
M  V30 END COLLECTION
M  V30 END CTAB
M  END
>  <Molecule Name>


>  <status>
-

>  <cas>
51022-71-0

>  <name>
NABILONE

>  <ID>
533

>  <Smiles>
CCCCCCC(C)(C)c1cc(OC(C)(C)[C@@H](CC2)[C@@H]3CC2=O)c3c(O)c1

$$$$

Actelion Java MolfileCreator 2.0

  0  0  0  0  0  0              0 V3000
M  V30 BEGIN CTAB
M  V30 COUNTS 23 25 0 0 0
M  V30 BEGIN ATOM
M  V30 1 Cl 0.866 0.9999 0.0 0
M  V30 2 C 1.732 1.4999 0.0 0
M  V30 3 C 2.598 1.0 0.0 0
M  V30 4 C 1.732 2.4999 0.0 0
M  V30 5 C 3.4641 1.5 0.0 0
M  V30 6 C 2.598 0.0 0.0 0 CFG=1
M  V30 7 C 2.598 3.0 0.0 0
M  V30 8 C 3.4641 2.5 0.0 0
M  V30 9 O 1.732 -0.5 0.0 0
M  V30 10 C 3.4641 -0.5 0.0 0
M  V30 11 Cl 2.598 4.0 0.0 0
M  V30 12 C 0.866 0.0 0.0 0
M  V30 13 N 4.3301 0.0 0.0 0
M  V30 14 C 0.0 -0.5 0.0 0
M  V30 15 C 5.2436 -0.4067 0.0 0
M  V30 16 C 4.4346 0.9945 0.0 0
M  V30 17 C -0.9135 -0.0932 0.0 0
M  V30 18 C -0.1045 -1.4945 0.0 0
M  V30 19 N 5.9128 0.3364 0.0 0
M  V30 20 C 5.4128 1.2024 0.0 0
M  V30 21 Cl -1.1214 0.8848 0.0 0
M  V30 22 S -1.5826 -0.8364 0.0 0
M  V30 23 C -1.0826 -1.7024 0.0 0
M  V30 END ATOM
M  V30 BEGIN BOND
M  V30 1 1 1 2
M  V30 2 2 2 3
M  V30 3 1 2 4
M  V30 4 1 3 5
M  V30 5 1 6 3
M  V30 6 2 4 7
M  V30 7 2 5 8
M  V30 8 1 6 9 CFG=3
M  V30 9 1 6 10
M  V30 10 1 7 11
M  V30 11 1 9 12
M  V30 12 1 10 13
M  V30 13 1 12 14
M  V30 14 1 13 15
M  V30 15 1 13 16
M  V30 16 2 14 17
M  V30 17 1 14 18
M  V30 18 2 15 19
M  V30 19 2 16 20
M  V30 20 1 17 21
M  V30 21 1 17 22
M  V30 22 2 18 23
M  V30 23 1 7 8
M  V30 24 1 19 20
M  V30 25 1 22 23
M  V30 END BOND
M  V30 BEGIN COLLECTION
M  V30 MDLV30/STERAC1 ATOMS=(1 6)
M  V30 END COLLECTION
M  V30 END CTAB
M  END
>  <Molecule Name>


>  <status>
-

>  <cas>
65899-73-2

>  <name>
TIOCONAZOLE

>  <ID>
534

>  <Smiles>
Clc1c(COC(Cn2cncc2)c(ccc(Cl)c2)c2Cl)ccs1

$$$$

Actelion Java MolfileCreator 2.0

  0  0  0  0  0  0              0 V3000
M  V30 BEGIN CTAB
M  V30 COUNTS 24 25 0 0 0
M  V30 BEGIN ATOM
M  V30 1 O 8.6602 -1.5 0.0 0
M  V30 2 C 8.6602 -0.5 0.0 0
M  V30 3 N 9.5262 0.0 0.0 0
M  V30 4 C 7.7942 0.0 0.0 0
M  V30 5 C 7.7942 0.9999 0.0 0
M  V30 6 C 6.9282 -0.5 0.0 0
M  V30 7 O 8.6602 1.4999 0.0 0
M  V30 8 C 6.9282 1.4999 0.0 0
M  V30 9 C 6.0621 0.0 0.0 0
M  V30 10 C 6.0621 1.0 0.0 0
M  V30 11 C 5.1961 -0.5 0.0 0 CFG=1
M  V30 12 O 5.1961 -1.4999 0.0 0
M  V30 13 C 4.3301 0.0 0.0 0
M  V30 14 N 3.4641 -0.5 0.0 0
M  V30 15 C 2.598 0.0 0.0 0 CFG=1
M  V30 16 C 1.732 -0.5 0.0 0
M  V30 17 C 2.598 1.0 0.0 0
M  V30 18 C 0.866 0.0 0.0 0
M  V30 19 C 0.0 -0.5 0.0 0
M  V30 20 C -0.866 0.0 0.0 0
M  V30 21 C 0.0 -1.4999 0.0 0
M  V30 22 C -1.732 -0.4999 0.0 0
M  V30 23 C -0.866 -1.9999 0.0 0
M  V30 24 C -1.732 -1.4999 0.0 0
M  V30 END ATOM
M  V30 BEGIN BOND
M  V30 1 2 1 2
M  V30 2 1 2 3
M  V30 3 1 2 4
M  V30 4 2 4 5
M  V30 5 1 4 6
M  V30 6 1 5 7
M  V30 7 1 5 8
M  V30 8 2 6 9
M  V30 9 2 8 10
M  V30 10 1 11 9
M  V30 11 1 11 12 CFG=1
M  V30 12 1 11 13
M  V30 13 1 13 14
M  V30 14 1 15 14 CFG=1
M  V30 15 1 15 16
M  V30 16 1 15 17
M  V30 17 1 16 18
M  V30 18 1 18 19
M  V30 19 2 19 20
M  V30 20 1 19 21
M  V30 21 1 20 22
M  V30 22 2 21 23
M  V30 23 2 22 24
M  V30 24 1 9 10
M  V30 25 1 23 24
M  V30 END BOND
M  V30 BEGIN COLLECTION
M  V30 MDLV30/STERAC1 ATOMS=(2 11 15)
M  V30 END COLLECTION
M  V30 END CTAB
M  END
>  <Molecule Name>


>  <status>
-

>  <cas>
36894-69-6

>  <name>
LABETALOL

>  <ID>
535

>  <Smiles>
C[C@H](CCc1ccccc1)NC[C@@H](c(cc1)cc(C(N)=O)c1O)O

$$$$

Actelion Java MolfileCreator 2.0

  0  0  0  0  0  0              0 V3000
M  V30 BEGIN CTAB
M  V30 COUNTS 23 26 0 0 0
M  V30 BEGIN ATOM
M  V30 1 O 2.598 -3.0 0.0 0
M  V30 2 C 2.598 -1.9999 0.0 0
M  V30 3 N 3.4641 -1.5 0.0 0
M  V30 4 C 1.732 -1.5 0.0 0
M  V30 5 C 3.4641 -0.5 0.0 0 CFG=2
M  V30 6 C 4.3301 -2.0 0.0 0
M  V30 7 N 1.732 -0.5 0.0 0
M  V30 8 C 4.3301 0.0 0.0 0
M  V30 9 C 2.598 0.0 0.0 0
M  V30 10 C 5.1961 -1.5 0.0 0
M  V30 11 C 0.866 0.0 0.0 0
M  V30 12 C 5.1961 -0.5 0.0 0
M  V30 13 C 4.3301 0.9999 0.0 0
M  V30 14 O 0.866 1.0 0.0 0
M  V30 15 C 0.0 -0.5 0.0 0
M  V30 16 C 6.0621 0.0 0.0 0
M  V30 17 C 5.1961 1.4999 0.0 0
M  V30 18 C -0.866 0.0 0.0 0
M  V30 19 C 0.0 -1.4999 0.0 0
M  V30 20 C 6.0621 0.9999 0.0 0
M  V30 21 C -1.732 -0.4999 0.0 0
M  V30 22 C -0.866 -1.9999 0.0 0
M  V30 23 C -1.732 -1.4999 0.0 0
M  V30 END ATOM
M  V30 BEGIN BOND
M  V30 1 2 1 2
M  V30 2 1 2 3
M  V30 3 1 2 4
M  V30 4 1 5 3 CFG=1
M  V30 5 1 3 6
M  V30 6 1 4 7
M  V30 7 1 5 8
M  V30 8 1 5 9
M  V30 9 1 6 10
M  V30 10 1 7 11
M  V30 11 2 8 12
M  V30 12 1 8 13
M  V30 13 2 11 14
M  V30 14 1 11 15
M  V30 15 1 12 16
M  V30 16 2 13 17
M  V30 17 1 15 18
M  V30 18 1 15 19
M  V30 19 2 16 20
M  V30 20 1 18 21
M  V30 21 1 19 22
M  V30 22 1 21 23
M  V30 23 1 7 9
M  V30 24 1 10 12
M  V30 25 1 17 20
M  V30 26 1 22 23
M  V30 END BOND
M  V30 BEGIN COLLECTION
M  V30 MDLV30/STERAC1 ATOMS=(1 5)
M  V30 END COLLECTION
M  V30 END CTAB
M  END
>  <Molecule Name>


>  <status>
-

>  <cas>
55268-74-1

>  <name>
PRAZIQUANTEL

>  <ID>
536

>  <Smiles>
O=C(C1CCCCC1)N(CC1N2CCc3c1cccc3)CC2=O

$$$$

Actelion Java MolfileCreator 2.0

  0  0  0  0  0  0              0 V3000
M  V30 BEGIN CTAB
M  V30 COUNTS 21 21 0 0 0
M  V30 BEGIN ATOM
M  V30 1 S 6.0621 0.0 0.0 0
M  V30 2 C 6.9282 -0.5 0.0 0
M  V30 3 C 5.1961 -0.5 0.0 0
M  V30 4 C 7.7942 0.0 0.0 0
M  V30 5 C 4.3301 0.0 0.0 0
M  V30 6 O 8.7077 -0.4067 0.0 0
M  V30 7 C 7.8987 0.9945 0.0 0
M  V30 8 N 3.4641 -0.5 0.0 0
M  V30 9 C 9.3769 0.3364 0.0 0
M  V30 10 C 8.8769 1.2024 0.0 0
M  V30 11 C 2.598 0.0 0.0 0
M  V30 12 C 10.3714 0.2318 0.0 0
M  V30 13 N 2.598 1.0 0.0 0
M  V30 14 C 1.732 -0.5 0.0 0
M  V30 15 N 10.7781 -0.6816 0.0 0
M  V30 16 C 1.732 1.5 0.0 0
M  V30 17 N 0.866 0.0 0.0 0 CHG=1
M  V30 18 C 10.1903 -1.4906 0.0 0
M  V30 19 C 11.7726 -0.7861 0.0 0
M  V30 20 O 0.866 1.0 0.0 0
M  V30 21 O 0.0 -0.5 0.0 0 CHG=-1
M  V30 END ATOM
M  V30 BEGIN BOND
M  V30 1 1 1 2
M  V30 2 1 1 3
M  V30 3 1 2 4
M  V30 4 1 3 5
M  V30 5 1 4 6
M  V30 6 2 4 7
M  V30 7 1 5 8
M  V30 8 1 6 9
M  V30 9 1 7 10
M  V30 10 1 8 11
M  V30 11 1 9 12
M  V30 12 1 11 13
M  V30 13 2 11 14
M  V30 14 1 12 15
M  V30 15 1 13 16
M  V30 16 1 14 17
M  V30 17 1 15 18
M  V30 18 1 15 19
M  V30 19 2 17 20
M  V30 20 1 17 21
M  V30 21 2 9 10
M  V30 END BOND
M  V30 END CTAB
M  END
>  <Molecule Name>


>  <status>
-

>  <cas>
66357-35-5

>  <name>
RANITIDINE

>  <ID>
537

>  <Smiles>
CN/C(/NCCSCc1ccc(CN(C)C)o1)=C\[N+]([O-])=O

$$$$

Actelion Java MolfileCreator 2.0

  0  0  0  0  0  0              0 V3000
M  V30 BEGIN CTAB
M  V30 COUNTS 25 27 0 0 0
M  V30 BEGIN ATOM
M  V30 1 Cl 0.9897 -4.4219 0.0 0
M  V30 2 C 1.2122 -3.447 0.0 0
M  V30 3 C 2.1678 -3.1523 0.0 0
M  V30 4 C 0.4792 -2.7668 0.0 0
M  V30 5 C 2.3903 -2.1773 0.0 0
M  V30 6 C 0.7017 -1.7919 0.0 0
M  V30 7 C 3.3792 -2.0283 0.0 0
M  V30 8 C 1.6573 -1.4972 0.0 0
M  V30 9 N 3.8792 -1.1623 0.0 0
M  V30 10 C 3.9425 -2.8545 0.0 0
M  V30 11 N 1.732 -0.5 0.0 0
M  V30 12 C 3.5138 -0.2314 0.0 0
M  V30 13 C 4.9397 -2.7798 0.0 0
M  V30 14 C 3.5086 -3.7555 0.0 0
M  V30 15 C 2.5582 0.0633 0.0 0
M  V30 16 C 0.866 0.0 0.0 0
M  V30 17 F 5.3736 -1.8788 0.0 0
M  V30 18 C 5.503 -3.606 0.0 0
M  V30 19 C 4.0719 -4.5817 0.0 0
M  V30 20 S 2.4092 1.0521 0.0 0
M  V30 21 C 0.866 0.9999 0.0 0
M  V30 22 C 5.0691 -4.507 0.0 0
M  V30 23 F 1.866 1.0 0.0 0
M  V30 24 F 0.866 1.9999 0.0 0
M  V30 25 F -0.1339 0.9999 0.0 0
M  V30 END ATOM
M  V30 BEGIN BOND
M  V30 1 1 1 2
M  V30 2 2 2 3
M  V30 3 1 2 4
M  V30 4 1 3 5
M  V30 5 2 4 6
M  V30 6 1 5 7
M  V30 7 2 5 8
M  V30 8 2 7 9
M  V30 9 1 7 10
M  V30 10 1 8 11
M  V30 11 1 9 12
M  V30 12 2 10 13
M  V30 13 1 10 14
M  V30 14 1 11 15
M  V30 15 1 11 16
M  V30 16 1 13 17
M  V30 17 1 13 18
M  V30 18 2 14 19
M  V30 19 2 15 20
M  V30 20 1 16 21
M  V30 21 2 18 22
M  V30 22 1 21 23
M  V30 23 1 21 24
M  V30 24 1 21 25
M  V30 25 1 6 8
M  V30 26 1 12 15
M  V30 27 1 19 22
M  V30 END BOND
M  V30 END CTAB
M  END
>  <Molecule Name>


>  <status>
-

>  <cas>
36735-22-5

>  <name>
QUAZEPAM

>  <ID>
538

>  <Smiles>
FC(CN(c(ccc(Cl)c1)c1C(c(cccc1)c1F)=NC1)C1=S)(F)F

$$$$

Actelion Java MolfileCreator 2.0

  0  0  0  0  0  0              0 V3000
M  V30 BEGIN CTAB
M  V30 COUNTS 23 26 0 0 0
M  V30 BEGIN ATOM
M  V30 1 O 2.598 -3.0 0.0 0
M  V30 2 C 2.598 -1.9999 0.0 0
M  V30 3 N 3.4641 -1.5 0.0 0
M  V30 4 C 1.732 -1.5 0.0 0
M  V30 5 C 3.4641 -0.5 0.0 0 CFG=2
M  V30 6 C 4.3301 -2.0 0.0 0
M  V30 7 N 1.732 -0.5 0.0 0
M  V30 8 C 4.3301 0.0 0.0 0
M  V30 9 C 2.598 0.0 0.0 0
M  V30 10 C 5.1961 -1.5 0.0 0
M  V30 11 C 0.866 0.0 0.0 0
M  V30 12 C 5.1961 -0.5 0.0 0
M  V30 13 C 4.3301 0.9999 0.0 0
M  V30 14 O 0.866 1.0 0.0 0
M  V30 15 C 0.0 -0.5 0.0 0
M  V30 16 C 6.0621 0.0 0.0 0
M  V30 17 C 5.1961 1.4999 0.0 0
M  V30 18 C -0.866 0.0 0.0 0
M  V30 19 C 0.0 -1.4999 0.0 0
M  V30 20 C 6.0621 0.9999 0.0 0
M  V30 21 C -1.732 -0.4999 0.0 0
M  V30 22 C -0.866 -1.9999 0.0 0
M  V30 23 C -1.732 -1.4999 0.0 0
M  V30 END ATOM
M  V30 BEGIN BOND
M  V30 1 2 1 2
M  V30 2 1 2 3
M  V30 3 1 2 4
M  V30 4 1 5 3 CFG=1
M  V30 5 1 3 6
M  V30 6 1 4 7
M  V30 7 1 5 8
M  V30 8 1 5 9
M  V30 9 1 6 10
M  V30 10 1 7 11
M  V30 11 2 8 12
M  V30 12 1 8 13
M  V30 13 2 11 14
M  V30 14 1 11 15
M  V30 15 1 12 16
M  V30 16 2 13 17
M  V30 17 1 15 18
M  V30 18 1 15 19
M  V30 19 2 16 20
M  V30 20 1 18 21
M  V30 21 1 19 22
M  V30 22 1 21 23
M  V30 23 1 7 9
M  V30 24 1 10 12
M  V30 25 1 17 20
M  V30 26 1 22 23
M  V30 END BOND
M  V30 BEGIN COLLECTION
M  V30 MDLV30/STERAC1 ATOMS=(1 5)
M  V30 END COLLECTION
M  V30 END CTAB
M  END
>  <Molecule Name>


>  <status>
-

>  <cas>
55268-74-1

>  <name>
PRAZIQUANTEL

>  <ID>
539

>  <Smiles>
O=C(C1CCCCC1)N(CC1N2CCc3c1cccc3)CC2=O

$$$$

Actelion Java MolfileCreator 2.0

  0  0  0  0  0  0              0 V3000
M  V30 BEGIN CTAB
M  V30 COUNTS 24 28 0 0 0
M  V30 BEGIN ATOM
M  V30 1 O 5.2246 -0.0446 0.0 0
M  V30 2 C 4.4156 -0.6324 0.0 0 CFG=1
M  V30 3 C 5.3292 -1.0391 0.0 0 CFG=2
M  V30 4 C 3.6066 -1.2202 0.0 0 CFG=2
M  V30 5 C 4.3111 0.362 0.0 0
M  V30 6 C 5.4337 -2.0336 0.0 0
M  V30 7 C 2.6931 -0.8134 0.0 0 CFG=1
M  V30 8 C 3.7111 -2.2147 0.0 0
M  V30 9 C 2.7976 -1.8079 0.0 0
M  V30 10 C 3.3976 0.7688 0.0 0
M  V30 11 O 6.3472 -2.4404 0.0 0
M  V30 12 C 4.6247 -2.6214 0.0 0
M  V30 13 C 2.5885 0.181 0.0 0 CFG=2
M  V30 14 C 1.884 -1.4012 0.0 0
M  V30 15 C 4.7292 -3.6159 0.0 0
M  V30 16 C 1.675 0.5877 0.0 0 CFG=2
M  V30 17 C 0.9705 -0.9945 0.0 0
M  V30 18 N 4.8337 -4.6105 0.0 0
M  V30 19 C 0.866 0.0 0.0 0 CFG=1
M  V30 20 C 1.366 1.5388 0.0 0
M  V30 21 C 0.057 0.5877 0.0 0 CFG=1
M  V30 22 C 0.0 -0.5 0.0 0
M  V30 23 C 0.366 1.5388 0.0 0
M  V30 24 O -0.894 0.2787 0.0 0
M  V30 END ATOM
M  V30 BEGIN BOND
M  V30 1 1 2 1 CFG=1
M  V30 2 1 3 1 CFG=1
M  V30 3 1 4 2
M  V30 4 1 2 5
M  V30 5 1 3 6
M  V30 6 1 7 4
M  V30 7 1 4 8
M  V30 8 1 4 9 CFG=3
M  V30 9 1 5 10
M  V30 10 1 6 11
M  V30 11 2 6 12
M  V30 12 1 13 7
M  V30 13 1 7 14 CFG=3
M  V30 14 1 12 15
M  V30 15 1 16 13
M  V30 16 1 14 17
M  V30 17 3 15 18
M  V30 18 1 19 16
M  V30 19 1 16 20 CFG=3
M  V30 20 1 21 19
M  V30 21 1 19 22 CFG=3
M  V30 22 1 20 23
M  V30 23 1 21 24 CFG=3
M  V30 24 1 2 3
M  V30 25 1 8 12
M  V30 26 1 13 10 CFG=1
M  V30 27 1 17 19
M  V30 28 1 21 23
M  V30 END BOND
M  V30 BEGIN COLLECTION
M  V30 MDLV30/STERAC1 ATOMS=(8 2 3 4 7 13 16 19 21)
M  V30 END COLLECTION
M  V30 END CTAB
M  END
>  <Molecule Name>


>  <status>
DISCONTINUED

>  <cas>
13647-35-3

>  <name>
TRILOSTANE

>  <ID>
540

>  <Smiles>
C[C@@](CC1)([C@H](CC2)[C@@H](CC3)[C@@H]1[C@](C)(C1)[C@]33O[C@H]3C(O)=C1C#N)[C@@H]2O

$$$$
_c001
Actelion Java MolfileCreator 2.0

  0  0  0  0  0  0              0 V3000
M  V30 BEGIN CTAB
M  V30 COUNTS 18 19 0 0 0
M  V30 BEGIN ATOM
M  V30 1 O 2.6294 -0.7726 0.0 0
M  V30 2 C 3.9013 0.0 0.0 0
M  V30 3 N 5.2018 -0.7508 0.0 0
M  V30 4 C 3.9013 1.5016 0.0 0 CFG=1
M  V30 5 C 5.2018 -2.2524 0.0 0
M  V30 6 C 6.5022 0.0 0.0 0
M  V30 7 C 2.4508 1.1129 0.0 0
M  V30 8 C 4.6521 2.802 0.0 0 CFG=2
M  V30 9 C 3.1505 2.802 0.0 0
M  V30 10 C 3.9013 -3.0032 0.0 0
M  V30 11 C 7.8027 -0.7508 0.0 0
M  V30 12 C 1.389 2.1747 0.0 0
M  V30 13 C 2.0479 -0.3265 0.0 0
M  V30 14 C 5.9526 3.5529 0.0 0
M  V30 15 C -0.0613 1.7861 0.0 0
M  V30 16 C 0.6117 -0.7261 0.0 0
M  V30 17 N 5.9526 5.0545 0.0 0
M  V30 18 C -0.45 0.3356 0.0 0
M  V30 END ATOM
M  V30 BEGIN BOND
M  V30 1 2 1 2
M  V30 2 1 2 3
M  V30 3 1 4 2 CFG=3
M  V30 4 1 3 5
M  V30 5 1 3 6
M  V30 6 1 4 7
M  V30 7 1 8 4
M  V30 8 1 4 9
M  V30 9 1 5 10
M  V30 10 1 6 11
M  V30 11 2 7 12
M  V30 12 1 7 13
M  V30 13 1 8 14 CFG=3
M  V30 14 1 12 15
M  V30 15 2 13 16
M  V30 16 1 14 17
M  V30 17 2 15 18
M  V30 18 1 8 9
M  V30 19 1 16 18
M  V30 END BOND
M  V30 BEGIN COLLECTION
M  V30 MDLV30/STERAC1 ATOMS=(2 4 8)
M  V30 END COLLECTION
M  V30 END CTAB
M  END
>  <Molecule Name>
_c001

>  <status>
-

>  <cas>
92623-85-3

>  <name>
MILNACIPRAN

>  <ID>
541

>  <Smiles>
CCN(CC)C([C@]1([C@@H](CN)C1)c1ccccc1)=O

$$$$

Actelion Java MolfileCreator 2.0

  0  0  0  0  0  0              0 V3000
M  V30 BEGIN CTAB
M  V30 COUNTS 28 31 0 0 0
M  V30 BEGIN ATOM
M  V30 1 O 3.4641 1.5 0.0 0
M  V30 2 C 4.3301 1.0 0.0 0
M  V30 3 N 4.3301 0.0 0.0 0
M  V30 4 C 5.1961 1.5 0.0 0
M  V30 5 C 5.1961 -0.4999 0.0 0
M  V30 6 C 3.4641 -0.5 0.0 0
M  V30 7 C 6.0621 1.0 0.0 0
M  V30 8 O 5.1961 -1.4999 0.0 0
M  V30 9 C 6.0621 0.0 0.0 0
M  V30 10 C 2.598 0.0 0.0 0
M  V30 11 C 6.9757 0.5932 0.0 0
M  V30 12 C 6.1667 1.9945 0.0 0
M  V30 13 C 1.732 -0.5 0.0 0
M  V30 14 C 7.6448 1.3364 0.0 0
M  V30 15 C 7.1448 2.2024 0.0 0
M  V30 16 C 0.866 0.0 0.0 0
M  V30 17 N 0.0 -0.5 0.0 0
M  V30 18 C -0.866 0.0 0.0 0
M  V30 19 C 0.0 -1.4999 0.0 0
M  V30 20 C -1.732 -0.4999 0.0 0
M  V30 21 C -0.866 -1.9999 0.0 0
M  V30 22 N -1.732 -1.4999 0.0 0
M  V30 23 C -2.598 -1.9999 0.0 0
M  V30 24 N -3.4641 -1.4999 0.0 0
M  V30 25 N -2.598 -2.9999 0.0 0
M  V30 26 C -4.3301 -1.9999 0.0 0
M  V30 27 C -3.4641 -3.4999 0.0 0
M  V30 28 C -4.3301 -2.9999 0.0 0
M  V30 END ATOM
M  V30 BEGIN BOND
M  V30 1 2 1 2
M  V30 2 1 2 3
M  V30 3 1 2 4
M  V30 4 1 3 5
M  V30 5 1 3 6
M  V30 6 1 4 7
M  V30 7 2 5 8
M  V30 8 1 5 9
M  V30 9 1 6 10
M  V30 10 1 7 11
M  V30 11 1 7 12
M  V30 12 1 10 13
M  V30 13 1 11 14
M  V30 14 1 12 15
M  V30 15 1 13 16
M  V30 16 1 16 17
M  V30 17 1 17 18
M  V30 18 1 17 19
M  V30 19 1 18 20
M  V30 20 1 19 21
M  V30 21 1 20 22
M  V30 22 1 22 23
M  V30 23 2 23 24
M  V30 24 1 23 25
M  V30 25 1 24 26
M  V30 26 2 25 27
M  V30 27 2 26 28
M  V30 28 1 7 9
M  V30 29 1 14 15
M  V30 30 1 21 22
M  V30 31 1 27 28
M  V30 END BOND
M  V30 END CTAB
M  END
>  <Molecule Name>


>  <status>
-

>  <cas>
36505-84-7

>  <name>
BUSPIRONE

>  <ID>
542

>  <Smiles>
O=C(CC1(CCCC1)C1)N(CCCCN(CC2)CCN2c2ncccn2)C1=O

$$$$

Actelion Java MolfileCreator 2.0

  0  0  0  0  0  0              0 V3000
M  V30 BEGIN CTAB
M  V30 COUNTS 24 26 0 0 0
M  V30 BEGIN ATOM
M  V30 1 Cl 0.866 0.9999 0.0 0
M  V30 2 C 1.732 1.4999 0.0 0
M  V30 3 C 2.598 1.0 0.0 0
M  V30 4 C 1.732 2.4999 0.0 0
M  V30 5 C 3.4641 1.5 0.0 0
M  V30 6 C 2.598 0.0 0.0 0 CFG=1
M  V30 7 C 2.598 3.0 0.0 0
M  V30 8 C 3.4641 2.5 0.0 0
M  V30 9 S 1.732 -0.5 0.0 0
M  V30 10 C 3.4641 -0.5 0.0 0
M  V30 11 Cl 2.598 4.0 0.0 0
M  V30 12 C 0.866 0.0 0.0 0
M  V30 13 N 4.3301 0.0 0.0 0
M  V30 14 C 0.0 -0.5 0.0 0
M  V30 15 C 5.2436 -0.4067 0.0 0
M  V30 16 C 4.4346 0.9945 0.0 0
M  V30 17 C -0.866 0.0 0.0 0
M  V30 18 C 0.0 -1.4999 0.0 0
M  V30 19 N 5.9128 0.3364 0.0 0
M  V30 20 C 5.4128 1.2024 0.0 0
M  V30 21 C -1.732 -0.4999 0.0 0
M  V30 22 C -0.866 -1.9999 0.0 0
M  V30 23 C -1.732 -1.4999 0.0 0
M  V30 24 Cl -2.598 -1.9999 0.0 0
M  V30 END ATOM
M  V30 BEGIN BOND
M  V30 1 1 1 2
M  V30 2 2 2 3
M  V30 3 1 2 4
M  V30 4 1 3 5
M  V30 5 1 6 3
M  V30 6 2 4 7
M  V30 7 2 5 8
M  V30 8 1 6 9 CFG=3
M  V30 9 1 6 10
M  V30 10 1 7 11
M  V30 11 1 9 12
M  V30 12 1 10 13
M  V30 13 1 12 14
M  V30 14 1 13 15
M  V30 15 1 13 16
M  V30 16 2 14 17
M  V30 17 1 14 18
M  V30 18 2 15 19
M  V30 19 2 16 20
M  V30 20 1 17 21
M  V30 21 2 18 22
M  V30 22 2 21 23
M  V30 23 1 23 24
M  V30 24 1 7 8
M  V30 25 1 19 20
M  V30 26 1 22 23
M  V30 END BOND
M  V30 BEGIN COLLECTION
M  V30 MDLV30/STERAC1 ATOMS=(1 6)
M  V30 END COLLECTION
M  V30 END CTAB
M  END
>  <Molecule Name>


>  <status>
-

>  <cas>
61318-90-9

>  <name>
SULCONAZOLE

>  <ID>
543

>  <Smiles>
Clc1ccc(CSC(Cn2cncc2)c(ccc(Cl)c2)c2Cl)cc1

$$$$

Actelion Java MolfileCreator 2.0

  0  0  0  0  0  0              0 V3000
M  V30 BEGIN CTAB
M  V30 COUNTS 20 22 0 0 0
M  V30 BEGIN ATOM
M  V30 1 N 4.3776 -0.0932 0.0 0
M  V30 2 C 3.4641 -0.5 0.0 0
M  V30 3 C 5.0467 -0.8364 0.0 0
M  V30 4 N 3.5686 -1.4945 0.0 0
M  V30 5 C 2.598 0.0 0.0 0
M  V30 6 C 4.5467 -1.7024 0.0 0
M  V30 7 N 1.732 -0.5 0.0 0
M  V30 8 C 1.732 -1.5 0.0 0
M  V30 9 C 0.866 0.0 0.0 0
M  V30 10 C 0.866 -1.9999 0.0 0
M  V30 11 C 2.598 -2.0 0.0 0
M  V30 12 C 0.0 -0.5 0.0 0
M  V30 13 C 0.866 -2.9999 0.0 0
M  V30 14 C 2.598 -3.0 0.0 0
M  V30 15 C -0.866 0.0 0.0 0
M  V30 16 C 0.0 -1.4999 0.0 0
M  V30 17 C 1.732 -3.5 0.0 0
M  V30 18 C -1.732 -0.4999 0.0 0
M  V30 19 C -0.866 -1.9999 0.0 0
M  V30 20 C -1.732 -1.4999 0.0 0
M  V30 END ATOM
M  V30 BEGIN BOND
M  V30 1 2 1 2
M  V30 2 1 1 3
M  V30 3 1 2 4
M  V30 4 1 2 5
M  V30 5 1 3 6
M  V30 6 1 5 7
M  V30 7 1 7 8
M  V30 8 1 7 9
M  V30 9 2 8 10
M  V30 10 1 8 11
M  V30 11 1 9 12
M  V30 12 1 10 13
M  V30 13 2 11 14
M  V30 14 2 12 15
M  V30 15 1 12 16
M  V30 16 2 13 17
M  V30 17 1 15 18
M  V30 18 2 16 19
M  V30 19 2 18 20
M  V30 20 1 4 6
M  V30 21 1 14 17
M  V30 22 1 19 20
M  V30 END BOND
M  V30 END CTAB
M  END
>  <Molecule Name>


>  <status>
DISCONTINUED

>  <cas>
91-75-8

>  <name>
ANTAZOLINE

>  <ID>
544

>  <Smiles>
C(C1=NCCN1)N(Cc1ccccc1)c1ccccc1

$$$$

Actelion Java MolfileCreator 2.0

  0  0  0  0  0  0              0 V3000
M  V30 BEGIN CTAB
M  V30 COUNTS 16 18 0 0 0
M  V30 BEGIN ATOM
M  V30 1 N 2.6455 -0.0932 0.0 0
M  V30 2 C 1.732 -0.5 0.0 0
M  V30 3 C 3.3147 -0.8364 0.0 0
M  V30 4 N 1.8365 -1.4945 0.0 0
M  V30 5 C 0.866 0.0 0.0 0
M  V30 6 C 2.8147 -1.7024 0.0 0
M  V30 7 C 0.0 -0.5 0.0 0
M  V30 8 C -0.866 0.0 0.0 0
M  V30 9 C 0.0 -1.4999 0.0 0
M  V30 10 C -1.732 -0.4999 0.0 0
M  V30 11 C -0.866 1.0 0.0 0
M  V30 12 C -0.866 -1.9999 0.0 0
M  V30 13 C -1.732 -1.4999 0.0 0
M  V30 14 C -2.598 0.0 0.0 0
M  V30 15 C -1.732 1.5 0.0 0
M  V30 16 C -2.598 1.0 0.0 0
M  V30 END ATOM
M  V30 BEGIN BOND
M  V30 1 2 1 2
M  V30 2 1 1 3
M  V30 3 1 2 4
M  V30 4 1 2 5
M  V30 5 1 3 6
M  V30 6 1 5 7
M  V30 7 1 7 8
M  V30 8 2 7 9
M  V30 9 1 8 10
M  V30 10 2 8 11
M  V30 11 1 9 12
M  V30 12 1 10 13
M  V30 13 2 10 14
M  V30 14 1 11 15
M  V30 15 1 14 16
M  V30 16 1 4 6
M  V30 17 2 12 13
M  V30 18 2 15 16
M  V30 END BOND
M  V30 END CTAB
M  END
>  <Molecule Name>


>  <status>
-

>  <cas>
835-31-4

>  <name>
NAPHAZOLINE

>  <ID>
545

>  <Smiles>
C(C1=NCCN1)c1cccc2ccccc12

$$$$

Actelion Java MolfileCreator 2.0

  0  0  0  0  0  0              0 V3000
M  V30 BEGIN CTAB
M  V30 COUNTS 15 16 0 0 0
M  V30 BEGIN ATOM
M  V30 1 O 1.299 0.0 0.0 0
M  V30 2 C 0.0 -0.75 0.0 0
M  V30 3 N -1.299 0.0 0.0 0
M  V30 4 C 0.0 -2.25 0.0 0
M  V30 5 O -1.299 1.5 0.0 0
M  V30 6 C -2.598 -0.7499 0.0 0
M  V30 7 C -1.299 -2.9999 0.0 0
M  V30 8 C -2.598 -2.2499 0.0 0
M  V30 9 C -3.8971 0.0 0.0 0
M  V30 10 C -1.299 -4.4999 0.0 0
M  V30 11 C -3.8971 1.5 0.0 0
M  V30 12 C -5.1961 -0.7499 0.0 0
M  V30 13 C -5.1961 2.25 0.0 0
M  V30 14 C -6.4951 0.0 0.0 0
M  V30 15 C -6.4951 1.5 0.0 0
M  V30 END ATOM
M  V30 BEGIN BOND
M  V30 1 2 1 2
M  V30 2 1 2 3
M  V30 3 1 2 4
M  V30 4 1 3 5
M  V30 5 1 3 6
M  V30 6 2 4 7
M  V30 7 2 6 8
M  V30 8 1 6 9
M  V30 9 1 7 10
M  V30 10 1 9 11
M  V30 11 1 9 12
M  V30 12 1 11 13
M  V30 13 1 12 14
M  V30 14 1 13 15
M  V30 15 1 7 8
M  V30 16 1 14 15
M  V30 END BOND
M  V30 END CTAB
M  END
>  <Molecule Name>


>  <status>
-

>  <cas>
29342-05-0

>  <name>
CICLOPIROX

>  <ID>
546

>  <Smiles>
CC(C=C(C1CCCCC1)N1O)=CC1=O

$$$$

Actelion Java MolfileCreator 2.0

  0  0  0  0  0  0              0 V3000
M  V30 BEGIN CTAB
M  V30 COUNTS 5 4 0 0 0
M  V30 BEGIN ATOM
M  V30 1 O 2.598 0.0 0.0 0
M  V30 2 C 1.732 -0.5 0.0 0
M  V30 3 N 0.866 0.0 0.0 0
M  V30 4 C 1.732 -1.5 0.0 0
M  V30 5 O 0.0 -0.5 0.0 0
M  V30 END ATOM
M  V30 BEGIN BOND
M  V30 1 2 1 2
M  V30 2 1 2 3
M  V30 3 1 2 4
M  V30 4 1 3 5
M  V30 END BOND
M  V30 END CTAB
M  END
>  <Molecule Name>


>  <status>
-

>  <cas>
546-88-3

>  <name>
ACETOHYDROXAMIC ACID

>  <ID>
547

>  <Smiles>
CC(NO)=O

$$$$

Actelion Java MolfileCreator 2.0

  0  0  0  0  0  0              0 V3000
M  V30 BEGIN CTAB
M  V30 COUNTS 24 26 0 0 0
M  V30 BEGIN ATOM
M  V30 1 Cl 0.866 0.9999 0.0 0
M  V30 2 C 1.732 1.4999 0.0 0
M  V30 3 C 2.598 1.0 0.0 0
M  V30 4 C 1.732 2.4999 0.0 0
M  V30 5 C 3.4641 1.5 0.0 0
M  V30 6 C 2.598 0.0 0.0 0 CFG=1
M  V30 7 C 2.598 3.0 0.0 0
M  V30 8 C 3.4641 2.5 0.0 0
M  V30 9 O 1.732 -0.5 0.0 0
M  V30 10 C 3.4641 -0.5 0.0 0
M  V30 11 Cl 2.598 4.0 0.0 0
M  V30 12 C 0.866 0.0 0.0 0
M  V30 13 N 4.3301 0.0 0.0 0
M  V30 14 C 0.0 -0.5 0.0 0
M  V30 15 C 5.2436 -0.4067 0.0 0
M  V30 16 C 4.4346 0.9945 0.0 0
M  V30 17 C -0.866 0.0 0.0 0
M  V30 18 C 0.0 -1.4999 0.0 0
M  V30 19 N 5.9128 0.3364 0.0 0
M  V30 20 C 5.4128 1.2024 0.0 0
M  V30 21 C -1.732 -0.4999 0.0 0
M  V30 22 C -0.866 -1.9999 0.0 0
M  V30 23 C -1.732 -1.4999 0.0 0
M  V30 24 Cl -2.598 -1.9999 0.0 0
M  V30 END ATOM
M  V30 BEGIN BOND
M  V30 1 1 1 2
M  V30 2 2 2 3
M  V30 3 1 2 4
M  V30 4 1 3 5
M  V30 5 1 6 3
M  V30 6 2 4 7
M  V30 7 2 5 8
M  V30 8 1 6 9 CFG=3
M  V30 9 1 6 10
M  V30 10 1 7 11
M  V30 11 1 9 12
M  V30 12 1 10 13
M  V30 13 1 12 14
M  V30 14 1 13 15
M  V30 15 1 13 16
M  V30 16 2 14 17
M  V30 17 1 14 18
M  V30 18 2 15 19
M  V30 19 2 16 20
M  V30 20 1 17 21
M  V30 21 2 18 22
M  V30 22 2 21 23
M  V30 23 1 23 24
M  V30 24 1 7 8
M  V30 25 1 19 20
M  V30 26 1 22 23
M  V30 END BOND
M  V30 BEGIN COLLECTION
M  V30 MDLV30/STERAC1 ATOMS=(1 6)
M  V30 END COLLECTION
M  V30 END CTAB
M  END
>  <Molecule Name>


>  <status>
-

>  <cas>
27220-47-9

>  <name>
ECONAZOLE

>  <ID>
548

>  <Smiles>
Clc1ccc(COC(Cn2cncc2)c(ccc(Cl)c2)c2Cl)cc1

$$$$

Actelion Java MolfileCreator 2.0

  0  0  0  0  0  0              0 V3000
M  V30 BEGIN CTAB
M  V30 COUNTS 19 20 0 0 0
M  V30 BEGIN ATOM
M  V30 1 O 2.598 3.0 0.0 0
M  V30 2 C 3.4641 2.5 0.0 0
M  V30 3 C 3.4641 1.5 0.0 0
M  V30 4 C 4.3301 3.0 0.0 0
M  V30 5 C 2.598 1.0 0.0 0
M  V30 6 C 4.3301 1.0 0.0 0
M  V30 7 C 5.1961 2.4999 0.0 0
M  V30 8 C 4.3301 4.0 0.0 0
M  V30 9 C 2.598 0.0 0.0 0
M  V30 10 C 4.3301 0.0 0.0 0
M  V30 11 C 6.0621 2.9999 0.0 0
M  V30 12 C 5.1961 4.4999 0.0 0
M  V30 13 C 3.4641 -0.4999 0.0 0
M  V30 14 C 1.732 -0.5 0.0 0 CFG=2
M  V30 15 C 6.0621 3.9999 0.0 0
M  V30 16 C 0.866 0.0 0.0 0
M  V30 17 C 1.732 -1.5 0.0 0
M  V30 18 O 0.866 1.0 0.0 0
M  V30 19 O 0.0 -0.5 0.0 0 CHG=-1
M  V30 END ATOM
M  V30 BEGIN BOND
M  V30 1 2 1 2
M  V30 2 1 2 3
M  V30 3 1 2 4
M  V30 4 2 3 5
M  V30 5 1 3 6
M  V30 6 2 4 7
M  V30 7 1 4 8
M  V30 8 1 5 9
M  V30 9 2 6 10
M  V30 10 1 7 11
M  V30 11 2 8 12
M  V30 12 2 9 13
M  V30 13 1 14 9
M  V30 14 2 11 15
M  V30 15 1 14 16
M  V30 16 1 14 17 CFG=1
M  V30 17 2 16 18
M  V30 18 1 16 19
M  V30 19 1 10 13
M  V30 20 1 12 15
M  V30 END BOND
M  V30 BEGIN COLLECTION
M  V30 MDLV30/STERAC1 ATOMS=(1 14)
M  V30 END COLLECTION
M  V30 END CTAB
M  END
>  <Molecule Name>


>  <status>
-

>  <cas>
22071-15-4

>  <name>
KETOPROFEN

>  <ID>
549

>  <Smiles>
CC(C([O-])=O)c1cccc(C(c2ccccc2)=O)c1

$$$$

Actelion Java MolfileCreator 2.0

  0  0  0  0  0  0              0 V3000
M  V30 BEGIN CTAB
M  V30 COUNTS 18 19 0 0 0
M  V30 BEGIN ATOM
M  V30 1 F 5.1961 -0.5 0.0 0
M  V30 2 C 4.3301 0.0 0.0 0
M  V30 3 C 4.3301 1.0 0.0 0
M  V30 4 C 3.4641 -0.4999 0.0 0
M  V30 5 C 5.1961 1.5 0.0 0
M  V30 6 C 3.4641 1.5 0.0 0
M  V30 7 C 2.598 0.0 0.0 0
M  V30 8 C 6.0621 0.9999 0.0 0
M  V30 9 C 5.1961 2.4999 0.0 0
M  V30 10 C 2.598 1.0 0.0 0
M  V30 11 C 1.732 -0.5 0.0 0 CFG=2
M  V30 12 C 6.9282 1.4999 0.0 0
M  V30 13 C 6.0621 2.9999 0.0 0
M  V30 14 C 0.866 0.0 0.0 0
M  V30 15 C 1.732 -1.5 0.0 0
M  V30 16 C 6.9282 2.4999 0.0 0
M  V30 17 O 0.866 1.0 0.0 0
M  V30 18 O 0.0 -0.5 0.0 0 CHG=-1
M  V30 END ATOM
M  V30 BEGIN BOND
M  V30 1 1 1 2
M  V30 2 2 2 3
M  V30 3 1 2 4
M  V30 4 1 3 5
M  V30 5 1 3 6
M  V30 6 2 4 7
M  V30 7 2 5 8
M  V30 8 1 5 9
M  V30 9 2 6 10
M  V30 10 1 11 7
M  V30 11 1 8 12
M  V30 12 2 9 13
M  V30 13 1 11 14
M  V30 14 1 11 15 CFG=1
M  V30 15 2 12 16
M  V30 16 2 14 17
M  V30 17 1 14 18
M  V30 18 1 7 10
M  V30 19 1 13 16
M  V30 END BOND
M  V30 BEGIN COLLECTION
M  V30 MDLV30/STERAC1 ATOMS=(1 11)
M  V30 END COLLECTION
M  V30 END CTAB
M  END
>  <Molecule Name>


>  <status>
-

>  <cas>
5104-49-4

>  <name>
FLURBIPROFEN

>  <ID>
550

>  <Smiles>
CC(C([O-])=O)c(cc1)cc(F)c1-c1ccccc1

$$$$

Actelion Java MolfileCreator 2.0

  0  0  0  0  0  0              0 V3000
M  V30 BEGIN CTAB
M  V30 COUNTS 42 48 0 0 0
M  V30 BEGIN ATOM
M  V30 1 O 7.778 -0.0581 0.0 0
M  V30 2 C 6.3108 0.2536 0.0 0
M  V30 3 O 5.7007 1.624 0.0 0
M  V30 4 C 5.1961 -0.7499 0.0 0 CFG=1
M  V30 5 C 4.2089 1.4672 0.0 0
M  V30 6 C 5.1961 -2.25 0.0 0 CFG=2
M  V30 7 C 3.8971 0.0 0.0 0 CFG=1
M  V30 8 C 3.8971 -3.0 0.0 0
M  V30 9 C 6.4951 -2.9999 0.0 0
M  V30 10 C 2.598 -0.75 0.0 0 CFG=2
M  V30 11 C 2.598 -2.25 0.0 0
M  V30 12 C 3.8971 -4.4999 0.0 0
M  V30 13 C 6.4951 -4.4999 0.0 0
M  V30 14 C 7.7942 -2.2499 0.0 0
M  V30 15 O 1.299 0.0 0.0 0
M  V30 16 C 1.299 -2.9999 0.0 0
M  V30 17 C 2.598 -5.25 0.0 0
M  V30 18 C 7.7942 -5.2499 0.0 0
M  V30 19 C 9.0932 -2.9999 0.0 0
M  V30 20 C 1.299 1.4999 0.0 0 CFG=1
M  V30 21 C 1.299 -4.5 0.0 0
M  V30 22 O 2.2862 -6.7172 0.0 0
M  V30 23 O 7.7942 -6.7499 0.0 0
M  V30 24 C 9.0932 -4.4999 0.0 0
M  V30 25 O 10.3923 -2.2499 0.0 0
M  V30 26 O 2.598 2.2499 0.0 0
M  V30 27 C 0.0 2.25 0.0 0 CFG=1
M  V30 28 O 0.1843 -5.5036 0.0 0
M  V30 29 C 0.7944 -6.874 0.0 0
M  V30 30 C 9.0932 -7.4999 0.0 0
M  V30 31 O 10.3923 -5.2499 0.0 0
M  V30 32 C 10.3923 -0.7499 0.0 0
M  V30 33 C 2.598 3.75 0.0 0 CFG=2
M  V30 34 O -1.299 1.5 0.0 0
M  V30 35 C 0.0 3.75 0.0 0 CFG=1
M  V30 36 C 1.299 4.5 0.0 0 CFG=1
M  V30 37 C 3.8971 4.4999 0.0 0
M  V30 38 O -1.299 4.5 0.0 0
M  V30 39 O 1.299 6.0 0.0 0
M  V30 40 O 3.8971 6.0 0.0 0
M  V30 41 C 2.598 6.7499 0.0 0 CFG=2
M  V30 42 C 2.598 8.25 0.0 0
M  V30 END ATOM
M  V30 BEGIN BOND
M  V30 1 2 1 2
M  V30 2 1 2 3
M  V30 3 1 4 2 CFG=1
M  V30 4 1 3 5
M  V30 5 1 6 4
M  V30 6 1 7 4
M  V30 7 1 6 8
M  V30 8 1 6 9 CFG=1
M  V30 9 1 10 7
M  V30 10 2 8 11
M  V30 11 1 8 12
M  V30 12 2 9 13
M  V30 13 1 9 14
M  V30 14 1 10 15 CFG=3
M  V30 15 1 11 16
M  V30 16 2 12 17
M  V30 17 1 13 18
M  V30 18 2 14 19
M  V30 19 1 20 15 CFG=3
M  V30 20 2 16 21
M  V30 21 1 17 22
M  V30 22 1 18 23
M  V30 23 2 18 24
M  V30 24 1 19 25
M  V30 25 1 20 26
M  V30 26 1 27 20
M  V30 27 1 21 28
M  V30 28 1 22 29
M  V30 29 1 23 30
M  V30 30 1 24 31
M  V30 31 1 25 32
M  V30 32 1 33 26 CFG=3
M  V30 33 1 27 34 CFG=1
M  V30 34 1 35 27
M  V30 35 1 36 33
M  V30 36 1 33 37
M  V30 37 1 35 38 CFG=3
M  V30 38 1 36 39 CFG=1
M  V30 39 1 37 40
M  V30 40 1 41 39
M  V30 41 1 41 42 CFG=1
M  V30 42 1 7 5 CFG=3
M  V30 43 1 10 11
M  V30 44 1 17 21
M  V30 45 1 19 24
M  V30 46 1 28 29
M  V30 47 1 35 36
M  V30 48 1 40 41
M  V30 END BOND
M  V30 BEGIN COLLECTION
M  V30 MDLV30/STERAC1 ATOMS=(10 4 6 7 10 20 27 33 35 36 41)
M  V30 END COLLECTION
M  V30 END CTAB
M  END
>  <Molecule Name>


>  <status>
-

>  <cas>
33419-42-0

>  <name>
ETOPOSIDE

>  <ID>
551

>  <Smiles>
C[C@@H](OC[C@@H]1O[C@@H]([C@H]2O)O[C@H]([C@H](CO3)[C@H]([C@H]4c(cc5OC)cc(OC)c5O)C3=O)c3c4cc4OCOc4c3)O[C@@H]1[C@H]2O

$$$$

Actelion Java MolfileCreator 2.0

  0  0  0  0  0  0              0 V3000
M  V30 BEGIN CTAB
M  V30 COUNTS 40 45 0 0 0
M  V30 BEGIN ATOM
M  V30 1 O 5.8438 7.8598 0.0 0
M  V30 2 C 5.5348 6.9087 0.0 0
M  V30 3 O 4.5567 6.7008 0.0 0
M  V30 4 C 6.2039 6.1656 0.0 0
M  V30 5 C 4.2476 5.7498 0.0 0 CFG=2
M  V30 6 C 3.2695 5.5418 0.0 0 CFG=1
M  V30 7 C 4.9168 5.0066 0.0 0
M  V30 8 N 2.6004 6.285 0.0 0
M  V30 9 C 2.9605 4.5908 0.0 0
M  V30 10 C 4.6078 4.0556 0.0 0 CFG=1
M  V30 11 C 2.9094 7.236 0.0 0
M  V30 12 C 1.6222 6.0771 0.0 0
M  V30 13 C 3.6296 3.8476 0.0 0 CFG=1
M  V30 14 C 5.2769 3.3124 0.0 0
M  V30 15 C 2.2402 7.9792 0.0 0
M  V30 16 C 0.9531 6.8202 0.0 0
M  V30 17 C 3.3206 2.8966 0.0 0 CFG=2
M  V30 18 C 2.6515 3.6397 0.0 0
M  V30 19 C 4.9679 2.3614 0.0 0
M  V30 20 C 1.2621 7.7713 0.0 0
M  V30 21 C 3.9897 2.1534 0.0 0 CFG=1
M  V30 22 C 2.3424 2.6887 0.0 0
M  V30 23 C 3.6807 1.2024 0.0 0 CFG=1
M  V30 24 C 2.0334 1.7376 0.0 0
M  V30 25 C 2.7026 0.9945 0.0 0 CFG=2
M  V30 26 C 4.1807 0.3364 0.0 0
M  V30 27 C 2.598 0.0 0.0 0 CFG=2
M  V30 28 C 1.7515 0.6855 0.0 0
M  V30 29 C 3.5116 -0.4067 0.0 0 CFG=1
M  V30 30 O 1.732 -0.5 0.0 0
M  V30 31 N 3.7195 -1.3848 0.0 0 CHG=1
M  V30 32 C 0.866 0.0 0.0 0
M  V30 33 C 2.9763 -2.054 0.0 0
M  V30 34 C 4.6705 -1.6939 0.0 0
M  V30 35 C 4.4626 -0.7157 0.0 0
M  V30 36 O 0.866 1.0 0.0 0
M  V30 37 C 0.0 -0.5 0.0 0
M  V30 38 C 3.1843 -3.0321 0.0 0
M  V30 39 C 4.8785 -2.672 0.0 0
M  V30 40 C 4.1353 -3.3411 0.0 0
M  V30 END ATOM
M  V30 BEGIN BOND
M  V30 1 2 1 2
M  V30 2 1 2 3
M  V30 3 1 2 4
M  V30 4 1 5 3 CFG=1
M  V30 5 1 6 5
M  V30 6 1 5 7
M  V30 7 1 6 8 CFG=3
M  V30 8 1 6 9
M  V30 9 1 10 7 CFG=3
M  V30 10 1 8 11
M  V30 11 1 8 12
M  V30 12 1 13 9
M  V30 13 1 10 14
M  V30 14 1 11 15
M  V30 15 1 12 16
M  V30 16 1 17 13
M  V30 17 1 13 18 CFG=3
M  V30 18 1 14 19
M  V30 19 1 15 20
M  V30 20 1 21 17
M  V30 21 1 17 22 CFG=3
M  V30 22 1 23 21
M  V30 23 1 22 24
M  V30 24 1 25 23
M  V30 25 1 23 26 CFG=3
M  V30 26 1 27 25
M  V30 27 1 25 28 CFG=3
M  V30 28 1 29 26
M  V30 29 1 27 30 CFG=3
M  V30 30 1 29 31 CFG=3
M  V30 31 1 30 32
M  V30 32 1 31 33
M  V30 33 1 31 34
M  V30 34 1 31 35
M  V30 35 2 32 36
M  V30 36 1 32 37
M  V30 37 1 33 38
M  V30 38 1 34 39
M  V30 39 1 38 40
M  V30 40 1 10 13
M  V30 41 1 16 20
M  V30 42 1 21 19 CFG=1
M  V30 43 1 24 25
M  V30 44 1 27 29
M  V30 45 1 39 40
M  V30 END BOND
M  V30 BEGIN COLLECTION
M  V30 MDLV30/STERAC1 ATOMS=(10 5 6 10 13 17 21 23 25 27 29)
M  V30 END COLLECTION
M  V30 END CTAB
M  END
>  <Molecule Name>


>  <status>
-

>  <cas>
50700-72-6

>  <name>
VECURONIUM

>  <ID>
552

>  <Smiles>
C[C@](CC1)([C@@H](C[C@@H]2[N+]3(C)CCCCC3)[C@H](CC3)[C@H]1[C@@](C)(C[C@@H]1N4CCCCC4)[C@@H]3C[C@@H]1OC(C)=O)[C@H]2OC(C)=O

$$$$

Actelion Java MolfileCreator 2.0

  0  0  0  0  0  0              0 V3000
M  V30 BEGIN CTAB
M  V30 COUNTS 28 29 0 0 0
M  V30 BEGIN ATOM
M  V30 1 F 4.1961 2.4999 0.0 0
M  V30 2 C 5.1961 2.4999 0.0 0
M  V30 3 F 5.1961 3.4999 0.0 0
M  V30 4 F 6.1961 2.4999 0.0 0
M  V30 5 C 5.1961 1.4999 0.0 0
M  V30 6 O 4.3301 0.9999 0.0 0
M  V30 7 C 4.3301 0.0 0.0 0
M  V30 8 C 3.4641 -0.5 0.0 0
M  V30 9 C 5.1961 -0.5 0.0 0
M  V30 10 C 2.598 0.0 0.0 0
M  V30 11 C 3.4641 -1.5 0.0 0
M  V30 12 C 5.1961 -1.5 0.0 0
M  V30 13 O 2.598 1.0 0.0 0
M  V30 14 N 1.732 -0.5 0.0 0
M  V30 15 C 4.3301 -2.0 0.0 0
M  V30 16 C 0.866 0.0 0.0 0
M  V30 17 O 4.3301 -3.0 0.0 0
M  V30 18 C 0.0 -0.5 0.0 0 CFG=2
M  V30 19 C 3.4641 -3.5 0.0 0
M  V30 20 N -0.866 0.0 0.0 0
M  V30 21 C 0.0 -1.4999 0.0 0
M  V30 22 C 3.4641 -4.5 0.0 0
M  V30 23 C -1.732 -0.4999 0.0 0
M  V30 24 C -0.866 -1.9999 0.0 0
M  V30 25 F 4.4641 -4.5 0.0 0
M  V30 26 F 3.4641 -5.5 0.0 0
M  V30 27 F 2.4641 -4.4999 0.0 0
M  V30 28 C -1.732 -1.4999 0.0 0
M  V30 END ATOM
M  V30 BEGIN BOND
M  V30 1 1 1 2
M  V30 2 1 2 3
M  V30 3 1 2 4
M  V30 4 1 2 5
M  V30 5 1 5 6
M  V30 6 1 6 7
M  V30 7 2 7 8
M  V30 8 1 7 9
M  V30 9 1 8 10
M  V30 10 1 8 11
M  V30 11 2 9 12
M  V30 12 2 10 13
M  V30 13 1 10 14
M  V30 14 2 11 15
M  V30 15 1 14 16
M  V30 16 1 15 17
M  V30 17 1 18 16 CFG=1
M  V30 18 1 17 19
M  V30 19 1 18 20
M  V30 20 1 18 21
M  V30 21 1 19 22
M  V30 22 1 20 23
M  V30 23 1 21 24
M  V30 24 1 22 25
M  V30 25 1 22 26
M  V30 26 1 22 27
M  V30 27 1 23 28
M  V30 28 1 12 15
M  V30 29 1 24 28
M  V30 END BOND
M  V30 BEGIN COLLECTION
M  V30 MDLV30/STERAC1 ATOMS=(1 18)
M  V30 END COLLECTION
M  V30 END CTAB
M  END
>  <Molecule Name>


>  <status>
-

>  <cas>
54143-55-4

>  <name>
FLECAINIDE

>  <ID>
553

>  <Smiles>
O=C(c(cc(cc1)OCC(F)(F)F)c1OCC(F)(F)F)NCC1NCCCC1

$$$$

Actelion Java MolfileCreator 2.0

  0  0  0  0  0  0              0 V3000
M  V30 BEGIN CTAB
M  V30 COUNTS 22 24 0 0 0
M  V30 BEGIN ATOM
M  V30 1 O 3.4641 -0.5 0.0 0
M  V30 2 C 2.598 0.0 0.0 0
M  V30 3 O 2.598 1.0 0.0 0 CHG=-1
M  V30 4 C 1.732 -0.5 0.0 0
M  V30 5 C 0.866 0.0 0.0 0
M  V30 6 C 0.0 -0.5 0.0 0
M  V30 7 O -0.9135 -0.0932 0.0 0
M  V30 8 N -0.1045 -1.4945 0.0 0
M  V30 9 C -1.5826 -0.8364 0.0 0
M  V30 10 C -1.0826 -1.7024 0.0 0
M  V30 11 C -2.5771 -0.7318 0.0 0
M  V30 12 C -1.4894 -2.6159 0.0 0
M  V30 13 C -2.9839 0.1816 0.0 0
M  V30 14 C -3.1649 -1.5408 0.0 0
M  V30 15 C -2.4839 -2.7205 0.0 0
M  V30 16 C -0.9016 -3.4249 0.0 0
M  V30 17 C -3.9784 0.2861 0.0 0
M  V30 18 C -4.1595 -1.4363 0.0 0
M  V30 19 C -2.8906 -3.634 0.0 0
M  V30 20 C -1.3083 -4.3385 0.0 0
M  V30 21 C -4.5662 -0.5228 0.0 0
M  V30 22 C -2.3028 -4.443 0.0 0
M  V30 END ATOM
M  V30 BEGIN BOND
M  V30 1 2 1 2
M  V30 2 1 2 3
M  V30 3 1 2 4
M  V30 4 1 4 5
M  V30 5 1 5 6
M  V30 6 1 6 7
M  V30 7 2 6 8
M  V30 8 1 7 9
M  V30 9 1 8 10
M  V30 10 1 9 11
M  V30 11 1 10 12
M  V30 12 2 11 13
M  V30 13 1 11 14
M  V30 14 2 12 15
M  V30 15 1 12 16
M  V30 16 1 13 17
M  V30 17 2 14 18
M  V30 18 1 15 19
M  V30 19 2 16 20
M  V30 20 2 17 21
M  V30 21 2 19 22
M  V30 22 2 9 10
M  V30 23 1 18 21
M  V30 24 1 20 22
M  V30 END BOND
M  V30 END CTAB
M  END
>  <Molecule Name>


>  <status>
-

>  <cas>
21256-18-8

>  <name>
OXAPROZIN

>  <ID>
554

>  <Smiles>
[O-]C(CCc1nc(-c2ccccc2)c(-c2ccccc2)o1)=O

$$$$

Actelion Java MolfileCreator 2.0

  0  0  0  0  0  0              0 V3000
M  V30 BEGIN CTAB
M  V30 COUNTS 17 18 0 0 0
M  V30 BEGIN ATOM
M  V30 1 O 1.732 -0.5 0.0 0
M  V30 2 C 0.866 0.0 0.0 0
M  V30 3 N 0.866 1.0 0.0 0
M  V30 4 C 0.0 -0.5 0.0 0
M  V30 5 N -0.9135 -0.0932 0.0 0
M  V30 6 N -0.1045 -1.4945 0.0 0
M  V30 7 N -1.5826 -0.8364 0.0 0
M  V30 8 C -1.0826 -1.7024 0.0 0
M  V30 9 C -2.5771 -0.7318 0.0 0 CFG=1
M  V30 10 O -3.0771 0.1341 0.0 0
M  V30 11 C -3.2463 -1.475 0.0 0 CFG=1
M  V30 12 C -4.0553 -0.0737 0.0 0 CFG=2
M  V30 13 O -3.0384 -2.4531 0.0 0
M  V30 14 C -4.1598 -1.0682 0.0 0 CFG=2
M  V30 15 C -4.7984 0.5953 0.0 0
M  V30 16 O -5.0258 -1.5682 0.0 0
M  V30 17 O -5.7495 0.2863 0.0 0
M  V30 END ATOM
M  V30 BEGIN BOND
M  V30 1 2 1 2
M  V30 2 1 2 3
M  V30 3 1 2 4
M  V30 4 2 4 5
M  V30 5 1 4 6
M  V30 6 1 5 7
M  V30 7 2 6 8
M  V30 8 1 9 7 CFG=3
M  V30 9 1 9 10
M  V30 10 1 11 9
M  V30 11 1 12 10
M  V30 12 1 11 13 CFG=1
M  V30 13 1 14 11
M  V30 14 1 12 15 CFG=3
M  V30 15 1 14 16 CFG=1
M  V30 16 1 15 17
M  V30 17 1 7 8
M  V30 18 1 12 14
M  V30 END BOND
M  V30 BEGIN COLLECTION
M  V30 MDLV30/STERAC1 ATOMS=(4 9 11 12 14)
M  V30 END COLLECTION
M  V30 END CTAB
M  END
>  <Molecule Name>


>  <status>
-

>  <cas>
36791-04-5

>  <name>
RIBAVIRIN

>  <ID>
555

>  <Smiles>
NC(c1nn([C@H]([C@H]2O)O[C@@H](CO)[C@@H]2O)cn1)=O

$$$$

Actelion Java MolfileCreator 2.0

  0  0  0  0  0  0              0 V3000
M  V30 BEGIN CTAB
M  V30 COUNTS 30 31 0 0 0
M  V30 BEGIN ATOM
M  V30 1 O 3.8971 -7.5 0.0 0
M  V30 2 N 5.1961 -6.7499 0.0 0 CHG=1
M  V30 3 O 6.4951 -7.4999 0.0 0 CHG=-1
M  V30 4 C 5.1961 -5.2499 0.0 0
M  V30 5 C 6.4951 -4.4999 0.0 0
M  V30 6 C 3.8971 -4.4999 0.0 0
M  V30 7 C 6.4951 -2.9999 0.0 0
M  V30 8 C 3.8971 -2.9999 0.0 0
M  V30 9 C 5.1961 -2.2499 0.0 0
M  V30 10 C 7.7942 -2.2499 0.0 0 CFG=2
M  V30 11 C 9.0932 -3.0 0.0 0
M  V30 12 C 7.7942 -0.75 0.0 0
M  V30 13 C 10.3923 -2.25 0.0 0
M  V30 14 C 9.0932 -4.5 0.0 0
M  V30 15 C 9.0932 0.0 0.0 0
M  V30 16 C 6.4951 0.0 0.0 0
M  V30 17 N 10.3923 -0.7499 0.0 0
M  V30 18 C 11.6913 -3.0 0.0 0
M  V30 19 O 7.7942 -5.25 0.0 0
M  V30 20 O 10.3923 -5.25 0.0 0
M  V30 21 C 9.0932 1.4999 0.0 0
M  V30 22 O 6.4951 1.5 0.0 0
M  V30 23 O 5.1961 -0.75 0.0 0
M  V30 24 C 10.3923 -6.75 0.0 0
M  V30 25 C 3.8971 0.0 0.0 0
M  V30 26 C 9.0932 -7.5 0.0 0
M  V30 27 C 11.6913 -7.5 0.0 0
M  V30 28 C 2.598 -0.75 0.0 0
M  V30 29 O 1.299 0.0 0.0 0
M  V30 30 C 0.0 -0.75 0.0 0
M  V30 END ATOM
M  V30 BEGIN BOND
M  V30 1 2 1 2
M  V30 2 1 2 3
M  V30 3 1 2 4
M  V30 4 2 4 5
M  V30 5 1 4 6
M  V30 6 1 5 7
M  V30 7 2 6 8
M  V30 8 2 7 9
M  V30 9 1 10 7 CFG=1
M  V30 10 1 10 11
M  V30 11 1 10 12
M  V30 12 2 11 13
M  V30 13 1 11 14
M  V30 14 2 12 15
M  V30 15 1 12 16
M  V30 16 1 13 17
M  V30 17 1 13 18
M  V30 18 2 14 19
M  V30 19 1 14 20
M  V30 20 1 15 21
M  V30 21 2 16 22
M  V30 22 1 16 23
M  V30 23 1 20 24
M  V30 24 1 23 25
M  V30 25 1 24 26
M  V30 26 1 24 27
M  V30 27 1 25 28
M  V30 28 1 28 29
M  V30 29 1 29 30
M  V30 30 1 8 9
M  V30 31 1 15 17
M  V30 END BOND
M  V30 BEGIN COLLECTION
M  V30 MDLV30/STERAC1 ATOMS=(1 10)
M  V30 END COLLECTION
M  V30 END CTAB
M  END
>  <Molecule Name>


>  <status>
-

>  <cas>
66085-59-4

>  <name>
NIMODIPINE

>  <ID>
556

>  <Smiles>
CC(C)OC(C(C1c2cccc([N+]([O-])=O)c2)=C(C)NC(C)=C1C(OCCOC)=O)=O

$$$$

Actelion Java MolfileCreator 2.0

  0  0  0  0  0  0              0 V3000
M  V30 BEGIN CTAB
M  V30 COUNTS 13 13 0 0 0
M  V30 BEGIN ATOM
M  V30 1 O 2.598 0.0 0.0 0
M  V30 2 C 3.4641 -0.5 0.0 0
M  V30 3 C 1.732 -0.5 0.0 0
M  V30 4 C 3.4641 -1.5 0.0 0
M  V30 5 C 4.3301 0.0 0.0 0
M  V30 6 C 0.866 0.0 0.0 0 CFG=1
M  V30 7 C 4.3301 -2.0 0.0 0
M  V30 8 C 2.598 -1.9999 0.0 0
M  V30 9 C 5.1961 -0.5 0.0 0
M  V30 10 C 4.3301 0.9999 0.0 0
M  V30 11 N 0.866 1.0 0.0 0
M  V30 12 C 0.0 -0.5 0.0 0
M  V30 13 C 5.1961 -1.5 0.0 0
M  V30 END ATOM
M  V30 BEGIN BOND
M  V30 1 1 1 2
M  V30 2 1 1 3
M  V30 3 2 2 4
M  V30 4 1 2 5
M  V30 5 1 6 3
M  V30 6 1 4 7
M  V30 7 1 4 8
M  V30 8 2 5 9
M  V30 9 1 5 10
M  V30 10 1 6 11 CFG=3
M  V30 11 1 6 12
M  V30 12 2 7 13
M  V30 13 1 9 13
M  V30 END BOND
M  V30 BEGIN COLLECTION
M  V30 MDLV30/STERAC1 ATOMS=(1 6)
M  V30 END COLLECTION
M  V30 END CTAB
M  END
>  <Molecule Name>


>  <status>
-

>  <cas>
31828-71-4

>  <name>
MEXILETINE

>  <ID>
557

>  <Smiles>
CC(COc1c(C)cccc1C)N

$$$$

Actelion Java MolfileCreator 2.0

  0  0  0  0  0  0              0 V3000
M  V30 BEGIN CTAB
M  V30 COUNTS 24 24 0 0 0
M  V30 BEGIN ATOM
M  V30 1 O 9.5262 0.0 0.0 0
M  V30 2 C 9.5262 0.9999 0.0 0
M  V30 3 N 8.6602 1.4999 0.0 0
M  V30 4 C 10.3923 1.4999 0.0 0
M  V30 5 C 7.7942 0.9999 0.0 0
M  V30 6 C 11.2583 0.9999 0.0 0
M  V30 7 C 6.9282 1.4999 0.0 0
M  V30 8 C 7.7942 0.0 0.0 0
M  V30 9 C 12.1243 1.4999 0.0 0
M  V30 10 C 6.0621 1.0 0.0 0
M  V30 11 C 6.9282 -0.5 0.0 0
M  V30 12 C 6.0621 0.0 0.0 0
M  V30 13 C 5.1961 1.5 0.0 0
M  V30 14 O 5.1961 -0.5 0.0 0
M  V30 15 O 5.1961 2.5 0.0 0
M  V30 16 C 4.3301 1.0 0.0 0
M  V30 17 C 4.3301 0.0 0.0 0
M  V30 18 C 3.4641 -0.5 0.0 0 CFG=1
M  V30 19 O 3.4641 -1.5 0.0 0
M  V30 20 C 2.598 0.0 0.0 0
M  V30 21 N 1.732 -0.5 0.0 0
M  V30 22 C 0.866 0.0 0.0 0
M  V30 23 C 0.866 1.0 0.0 0
M  V30 24 C 0.0 -0.5 0.0 0
M  V30 END ATOM
M  V30 BEGIN BOND
M  V30 1 2 1 2
M  V30 2 1 2 3
M  V30 3 1 2 4
M  V30 4 1 3 5
M  V30 5 1 4 6
M  V30 6 2 5 7
M  V30 7 1 5 8
M  V30 8 1 6 9
M  V30 9 1 7 10
M  V30 10 2 8 11
M  V30 11 2 10 12
M  V30 12 1 10 13
M  V30 13 1 12 14
M  V30 14 2 13 15
M  V30 15 1 13 16
M  V30 16 1 14 17
M  V30 17 1 18 17
M  V30 18 1 18 19 CFG=1
M  V30 19 1 18 20
M  V30 20 1 20 21
M  V30 21 1 21 22
M  V30 22 1 22 23
M  V30 23 1 22 24
M  V30 24 1 11 12
M  V30 END BOND
M  V30 BEGIN COLLECTION
M  V30 MDLV30/STERAC1 ATOMS=(1 18)
M  V30 END COLLECTION
M  V30 END CTAB
M  END
>  <Molecule Name>


>  <status>
-

>  <cas>
37517-30-9

>  <name>
ACEBUTOLOL

>  <ID>
558

>  <Smiles>
CCCC(Nc(cc1)cc(C(C)=O)c1OCC(CNC(C)C)O)=O

$$$$

Actelion Java MolfileCreator 2.0

  0  0  0  0  0  0              0 V3000
M  V30 BEGIN CTAB
M  V30 COUNTS 21 23 0 0 0
M  V30 BEGIN ATOM
M  V30 1 O 2.598 2.2499 0.0 0
M  V30 2 C 1.299 1.4999 0.0 0
M  V30 3 O 0.0 2.25 0.0 0 CHG=-1
M  V30 4 C 1.299 0.0 0.0 0
M  V30 5 C 0.0 -0.75 0.0 0 CFG=2
M  V30 6 O 0.0 -2.25 0.0 0
M  V30 7 C -1.299 0.0 0.0 0
M  V30 8 C 1.299 -1.5 0.0 0
M  V30 9 C -1.299 -2.9999 0.0 0
M  V30 10 N -1.6109 1.4672 0.0 0
M  V30 11 C -2.598 -0.7499 0.0 0
M  V30 12 C 2.598 -0.75 0.0 0
M  V30 13 C -2.598 -2.2499 0.0 0
M  V30 14 C -3.1026 1.624 0.0 0
M  V30 15 C -3.7127 0.2536 0.0 0
M  V30 16 C -3.9843 2.8375 0.0 0
M  V30 17 C -5.2045 0.0969 0.0 0
M  V30 18 C -5.4761 2.6807 0.0 0
M  V30 19 C -3.3742 4.2078 0.0 0
M  V30 20 C -6.0862 1.3104 0.0 0
M  V30 21 C -4.2559 5.4213 0.0 0
M  V30 END ATOM
M  V30 BEGIN BOND
M  V30 1 2 1 2
M  V30 2 1 2 3
M  V30 3 1 2 4
M  V30 4 1 5 4
M  V30 5 1 5 6
M  V30 6 1 5 7
M  V30 7 1 5 8 CFG=1
M  V30 8 1 6 9
M  V30 9 1 7 10
M  V30 10 2 7 11
M  V30 11 1 8 12
M  V30 12 1 9 13
M  V30 13 1 10 14
M  V30 14 1 11 15
M  V30 15 1 14 16
M  V30 16 1 15 17
M  V30 17 2 16 18
M  V30 18 1 16 19
M  V30 19 2 17 20
M  V30 20 1 19 21
M  V30 21 1 11 13
M  V30 22 2 14 15
M  V30 23 1 18 20
M  V30 END BOND
M  V30 BEGIN COLLECTION
M  V30 MDLV30/STERAC1 ATOMS=(1 5)
M  V30 END COLLECTION
M  V30 END CTAB
M  END
>  <Molecule Name>


>  <status>
-

>  <cas>
41340-25-4

>  <name>
ETODOLAC

>  <ID>
559

>  <Smiles>
CCC1(CC([O-])=O)OCCc2c1[nH]c1c2cccc1CC

$$$$

Actelion Java MolfileCreator 2.0

  0  0  0  0  0  0              0 V3000
M  V30 BEGIN CTAB
M  V30 COUNTS 25 30 0 0 0
M  V30 BEGIN ATOM
M  V30 1 O 3.1498 -3.8479 0.0 0
M  V30 2 C 3.0515 -2.8527 0.0 0
M  V30 3 C 3.8642 -2.27 0.0 0 CFG=1
M  V30 4 C 2.1405 -2.4403 0.0 0
M  V30 5 O 4.841 -2.484 0.0 0
M  V30 6 C 3.7659 -1.2749 0.0 0 CFG=1
M  V30 7 C 2.0984 -1.3894 0.0 0
M  V30 8 C 5.3464 -1.6211 0.0 0
M  V30 9 C 4.6819 -0.8738 0.0 0
M  V30 10 C 2.8549 -0.8624 0.0 0 CFG=1
M  V30 11 C 2.6158 -1.9934 0.0 0
M  V30 12 C 6.2947 -1.1495 0.0 0
M  V30 13 C 4.6409 0.1574 0.0 0
M  V30 14 O 2.0856 -0.4195 0.0 0
M  V30 15 C 2.9088 0.1682 0.0 0 CFG=2
M  V30 16 C 1.6447 -1.517 0.0 0
M  V30 17 O 7.1051 -1.7354 0.0 0
M  V30 18 C 6.437 -0.1596 0.0 0
M  V30 19 C 5.6509 0.4584 0.0 0
M  V30 20 C 3.778 0.6628 0.0 0
M  V30 21 N 1.665 -0.5152 0.0 0
M  V30 22 C 0.866 0.0 0.0 0
M  V30 23 C 0.0 -0.5 0.0 0
M  V30 24 C -1.0 -0.4999 0.0 0
M  V30 25 C -0.5 -1.366 0.0 0
M  V30 END ATOM
M  V30 BEGIN BOND
M  V30 1 2 1 2
M  V30 2 1 3 2
M  V30 3 1 2 4
M  V30 4 1 3 5 CFG=3
M  V30 5 1 6 3
M  V30 6 1 4 7
M  V30 7 1 5 8
M  V30 8 1 6 9
M  V30 9 1 10 6
M  V30 10 1 6 11 CFG=1
M  V30 11 1 8 12
M  V30 12 1 9 13
M  V30 13 1 10 14 CFG=1
M  V30 14 1 15 10
M  V30 15 1 11 16
M  V30 16 1 12 17
M  V30 17 2 12 18
M  V30 18 2 13 19
M  V30 19 1 13 20
M  V30 20 1 15 21 CFG=1
M  V30 21 1 21 22
M  V30 22 1 22 23
M  V30 23 1 23 24
M  V30 24 1 23 25
M  V30 25 1 7 10
M  V30 26 2 8 9
M  V30 27 1 15 20
M  V30 28 1 16 21
M  V30 29 1 18 19
M  V30 30 1 24 25
M  V30 END BOND
M  V30 BEGIN COLLECTION
M  V30 MDLV30/STERAC1 ATOMS=(4 3 6 10 15)
M  V30 END COLLECTION
M  V30 END CTAB
M  END
>  <Molecule Name>


>  <status>
-

>  <cas>
16590-41-3

>  <name>
NALTREXONE

>  <ID>
560

>  <Smiles>
O[C@@](CC1)([C@H](Cc2ccc3O)N(CC4CC4)CC4)[C@]44c2c3O[C@@H]4C1=O

$$$$

Actelion Java MolfileCreator 2.0

  0  0  0  0  0  0              0 V3000
M  V30 BEGIN CTAB
M  V30 COUNTS 22 23 0 0 0
M  V30 BEGIN ATOM
M  V30 1 F 8.2942 -1.1339 0.0 0
M  V30 2 C 7.7942 -2.0 0.0 0
M  V30 3 F 8.6602 -2.5 0.0 0
M  V30 4 F 7.2942 -2.866 0.0 0
M  V30 5 C 6.9282 -1.5 0.0 0
M  V30 6 C 6.9282 -0.5 0.0 0
M  V30 7 C 6.0621 -2.0 0.0 0
M  V30 8 C 6.0621 0.0 0.0 0
M  V30 9 C 5.1961 -1.5 0.0 0
M  V30 10 C 5.1961 -0.5 0.0 0
M  V30 11 O 4.3301 0.0 0.0 0
M  V30 12 C 3.4641 -0.5 0.0 0 CFG=2
M  V30 13 C 3.4641 -1.5 0.0 0
M  V30 14 C 2.598 0.0 0.0 0
M  V30 15 C 2.598 -1.9999 0.0 0
M  V30 16 C 4.3301 -2.0 0.0 0
M  V30 17 C 1.732 -0.5 0.0 0
M  V30 18 C 2.598 -2.9999 0.0 0
M  V30 19 C 4.3301 -3.0 0.0 0
M  V30 20 N 0.866 0.0 0.0 0
M  V30 21 C 3.4641 -3.5 0.0 0
M  V30 22 C 0.0 -0.5 0.0 0
M  V30 END ATOM
M  V30 BEGIN BOND
M  V30 1 1 1 2
M  V30 2 1 2 3
M  V30 3 1 2 4
M  V30 4 1 2 5
M  V30 5 2 5 6
M  V30 6 1 5 7
M  V30 7 1 6 8
M  V30 8 2 7 9
M  V30 9 2 8 10
M  V30 10 1 10 11
M  V30 11 1 12 11 CFG=3
M  V30 12 1 12 13
M  V30 13 1 12 14
M  V30 14 2 13 15
M  V30 15 1 13 16
M  V30 16 1 14 17
M  V30 17 1 15 18
M  V30 18 2 16 19
M  V30 19 1 17 20
M  V30 20 2 18 21
M  V30 21 1 20 22
M  V30 22 1 9 10
M  V30 23 1 19 21
M  V30 END BOND
M  V30 BEGIN COLLECTION
M  V30 MDLV30/STERAC1 ATOMS=(1 12)
M  V30 END COLLECTION
M  V30 END CTAB
M  END
>  <Molecule Name>


>  <status>
-

>  <cas>
54910-89-3

>  <name>
FLUOXETINE

>  <ID>
561

>  <Smiles>
CNCCC(c1ccccc1)Oc1ccc(C(F)(F)F)cc1

$$$$

Actelion Java MolfileCreator 2.0

  0  0  0  0  0  0              0 V3000
M  V30 BEGIN CTAB
M  V30 COUNTS 11 10 0 0 0
M  V30 BEGIN ATOM
M  V30 1 O 4.3301 0.0 0.0 0
M  V30 2 C 3.4641 -0.5 0.0 0
M  V30 3 O 3.4641 -1.5 0.0 0 CHG=-1
M  V30 4 C 2.598 0.0 0.0 0
M  V30 5 C 1.732 -0.5 0.0 0 CFG=2
M  V30 6 O 1.732 -1.5 0.0 0
M  V30 7 C 0.866 0.0 0.0 0
M  V30 8 N 0.0 -0.5 0.0 0 CHG=1
M  V30 9 C 0.4999 -1.366 0.0 0
M  V30 10 C -0.866 -0.9999 0.0 0
M  V30 11 C -0.4999 0.366 0.0 0
M  V30 END ATOM
M  V30 BEGIN BOND
M  V30 1 2 1 2
M  V30 2 1 2 3
M  V30 3 1 2 4
M  V30 4 1 5 4
M  V30 5 1 5 6 CFG=3
M  V30 6 1 5 7
M  V30 7 1 7 8
M  V30 8 1 8 9
M  V30 9 1 8 10
M  V30 10 1 8 11
M  V30 END BOND
M  V30 BEGIN COLLECTION
M  V30 MDLV30/STERAC1 ATOMS=(1 5)
M  V30 END COLLECTION
M  V30 END CTAB
M  END
>  <Molecule Name>


>  <status>
-

>  <cas>
541-15-1

>  <name>
LEVOCARNITINE

>  <ID>
562

>  <Smiles>
C[N+](C)(C)CC(CC([O-])=O)O

$$$$

Actelion Java MolfileCreator 2.0

  0  0  0  0  0  0              0 V3000
M  V30 BEGIN CTAB
M  V30 COUNTS 31 33 0 0 0
M  V30 BEGIN ATOM
M  V30 1 I 9.0932 1.5 0.0 0
M  V30 2 C 9.0932 0.0 0.0 0
M  V30 3 C 7.7942 -0.75 0.0 0
M  V30 4 C 10.3923 -0.7499 0.0 0
M  V30 5 O 6.4951 0.0 0.0 0
M  V30 6 C 7.7942 -2.25 0.0 0
M  V30 7 C 10.3923 -2.2499 0.0 0
M  V30 8 C 5.1961 -0.75 0.0 0
M  V30 9 I 6.4951 -3.0 0.0 0
M  V30 10 C 9.0932 -2.9999 0.0 0
M  V30 11 C 11.6913 -2.9999 0.0 0
M  V30 12 C 3.8971 0.0 0.0 0
M  V30 13 O 11.6913 -4.4999 0.0 0
M  V30 14 C 12.9903 -2.2499 0.0 0
M  V30 15 N 2.598 -0.75 0.0 0
M  V30 16 C 13.1471 -0.7582 0.0 0
M  V30 17 C 14.3606 -2.8601 0.0 0
M  V30 18 C 2.598 -2.25 0.0 0
M  V30 19 C 1.299 0.0 0.0 0
M  V30 20 C 14.6143 -0.4463 0.0 0
M  V30 21 C 12.1434 0.3565 0.0 0
M  V30 22 O 15.3643 -1.7453 0.0 0
M  V30 23 C 14.6725 -4.3273 0.0 0
M  V30 24 C 3.8971 -3.0 0.0 0
M  V30 25 C 0.0 -0.75 0.0 0
M  V30 26 C 15.0779 0.9802 0.0 0
M  V30 27 C 12.607 1.783 0.0 0
M  V30 28 C 13.5578 -5.331 0.0 0
M  V30 29 C 14.0742 2.0949 0.0 0
M  V30 30 C 13.8697 -6.7982 0.0 0
M  V30 31 C 12.7549 -7.8019 0.0 0
M  V30 END ATOM
M  V30 BEGIN BOND
M  V30 1 1 1 2
M  V30 2 2 2 3
M  V30 3 1 2 4
M  V30 4 1 3 5
M  V30 5 1 3 6
M  V30 6 2 4 7
M  V30 7 1 5 8
M  V30 8 1 6 9
M  V30 9 2 6 10
M  V30 10 1 7 11
M  V30 11 1 8 12
M  V30 12 2 11 13
M  V30 13 1 11 14
M  V30 14 1 12 15
M  V30 15 1 14 16
M  V30 16 2 14 17
M  V30 17 1 15 18
M  V30 18 1 15 19
M  V30 19 2 16 20
M  V30 20 1 16 21
M  V30 21 1 17 22
M  V30 22 1 17 23
M  V30 23 1 18 24
M  V30 24 1 19 25
M  V30 25 1 20 26
M  V30 26 2 21 27
M  V30 27 1 23 28
M  V30 28 2 26 29
M  V30 29 1 28 30
M  V30 30 1 30 31
M  V30 31 1 7 10
M  V30 32 1 20 22
M  V30 33 1 27 29
M  V30 END BOND
M  V30 END CTAB
M  END
>  <Molecule Name>


>  <status>
-

>  <cas>
1951-25-3

>  <name>
AMIODARONE

>  <ID>
563

>  <Smiles>
CCCCc1c(C(c(cc2I)cc(I)c2OCCN(CC)CC)=O)c(cccc2)c2o1

$$$$

Actelion Java MolfileCreator 2.0

  0  0  0  0  0  0              0 V3000
M  V30 BEGIN CTAB
M  V30 COUNTS 27 28 0 0 0
M  V30 BEGIN ATOM
M  V30 1 O 13.501 1.7908 0.0 0
M  V30 2 C 12.0744 1.3273 0.0 0
M  V30 3 O 10.9597 2.331 0.0 0 CHG=-1
M  V30 4 C 11.7626 -0.1398 0.0 0 CFG=1
M  V30 5 N 10.3923 -0.75 0.0 0
M  V30 6 C 12.7663 -1.2546 0.0 0
M  V30 7 C 9.0932 0.0 0.0 0
M  V30 8 C 10.549 -2.2417 0.0 0
M  V30 9 C 12.0163 -2.5536 0.0 0
M  V30 10 O 9.0932 1.4999 0.0 0
M  V30 11 C 7.7942 -0.75 0.0 0 CFG=1
M  V30 12 N 6.4951 0.0 0.0 0
M  V30 13 C 7.7942 -2.25 0.0 0
M  V30 14 C 5.1961 -0.75 0.0 0 CFG=2
M  V30 15 C 3.8971 0.0 0.0 0
M  V30 16 C 5.1961 -2.25 0.0 0
M  V30 17 O 3.8971 1.5 0.0 0
M  V30 18 O 2.598 -0.75 0.0 0
M  V30 19 C 3.8971 -3.0 0.0 0
M  V30 20 C 1.299 0.0 0.0 0
M  V30 21 C 3.8971 -4.5 0.0 0
M  V30 22 C 0.0 -0.75 0.0 0
M  V30 23 C 2.598 -5.2499 0.0 0
M  V30 24 C 5.1961 -5.25 0.0 0
M  V30 25 C 2.598 -6.75 0.0 0
M  V30 26 C 5.1961 -6.75 0.0 0
M  V30 27 C 3.8971 -7.5 0.0 0
M  V30 END ATOM
M  V30 BEGIN BOND
M  V30 1 2 1 2
M  V30 2 1 2 3
M  V30 3 1 4 2 CFG=3
M  V30 4 1 4 5
M  V30 5 1 4 6
M  V30 6 1 5 7
M  V30 7 1 5 8
M  V30 8 1 6 9
M  V30 9 2 7 10
M  V30 10 1 11 7
M  V30 11 1 11 12 CFG=3
M  V30 12 1 11 13
M  V30 13 1 14 12 CFG=1
M  V30 14 1 14 15
M  V30 15 1 14 16
M  V30 16 2 15 17
M  V30 17 1 15 18
M  V30 18 1 16 19
M  V30 19 1 18 20
M  V30 20 1 19 21
M  V30 21 1 20 22
M  V30 22 2 21 23
M  V30 23 1 21 24
M  V30 24 1 23 25
M  V30 25 2 24 26
M  V30 26 2 25 27
M  V30 27 1 8 9
M  V30 28 1 26 27
M  V30 END BOND
M  V30 BEGIN COLLECTION
M  V30 MDLV30/STERAC1 ATOMS=(3 4 11 14)
M  V30 END COLLECTION
M  V30 END CTAB
M  END
>  <Molecule Name>


>  <status>
-

>  <cas>
75847-73-3

>  <name>
ENALAPRIL

>  <ID>
564

>  <Smiles>
CCOC([C@H](CCc1ccccc1)N[C@@H](C)C(N(CCC1)[C@@H]1C([O-])=O)=O)=O

$$$$

Actelion Java MolfileCreator 2.0

  0  0  0  0  0  0              0 V3000
M  V30 BEGIN CTAB
M  V30 COUNTS 27 29 0 0 0
M  V30 BEGIN ATOM
M  V30 1 O 6.4951 -2.9999 0.0 0
M  V30 2 C 5.1961 -2.25 0.0 0
M  V30 3 C 6.4951 -4.5 0.0 0
M  V30 4 C 5.1961 -0.75 0.0 0 CFG=1
M  V30 5 C 7.7942 -5.25 0.0 0
M  V30 6 N 6.4951 0.0 0.0 0
M  V30 7 C 3.8971 0.0 0.0 0
M  V30 8 C 7.7942 -6.75 0.0 0
M  V30 9 C 9.0932 -4.5 0.0 0
M  V30 10 C 6.6519 1.4917 0.0 0
M  V30 11 C 7.8655 -0.6101 0.0 0
M  V30 12 N 2.598 -0.75 0.0 0
M  V30 13 C 8.1192 1.8036 0.0 0
M  V30 14 C 8.8692 0.5046 0.0 0
M  V30 15 C 2.598 -2.25 0.0 0
M  V30 16 C 1.299 0.0 0.0 0
M  V30 17 C 1.299 -2.9999 0.0 0
M  V30 18 C 3.8971 -3.0 0.0 0
M  V30 19 C 0.0 -0.75 0.0 0
M  V30 20 C 1.299 -4.4999 0.0 0
M  V30 21 C 3.8971 -4.5 0.0 0
M  V30 22 C -1.299 0.0 0.0 0
M  V30 23 C 0.0 -2.2499 0.0 0
M  V30 24 C 2.598 -5.25 0.0 0
M  V30 25 C -2.598 -0.7499 0.0 0
M  V30 26 C -1.299 -2.9999 0.0 0
M  V30 27 C -2.598 -2.2499 0.0 0
M  V30 END ATOM
M  V30 BEGIN BOND
M  V30 1 1 1 2
M  V30 2 1 1 3
M  V30 3 1 4 2
M  V30 4 1 3 5
M  V30 5 1 4 6 CFG=3
M  V30 6 1 4 7
M  V30 7 1 5 8
M  V30 8 1 5 9
M  V30 9 1 6 10
M  V30 10 1 6 11
M  V30 11 1 7 12
M  V30 12 1 10 13
M  V30 13 1 11 14
M  V30 14 1 12 15
M  V30 15 1 12 16
M  V30 16 2 15 17
M  V30 17 1 15 18
M  V30 18 1 16 19
M  V30 19 1 17 20
M  V30 20 2 18 21
M  V30 21 2 19 22
M  V30 22 1 19 23
M  V30 23 2 20 24
M  V30 24 1 22 25
M  V30 25 2 23 26
M  V30 26 2 25 27
M  V30 27 1 13 14
M  V30 28 1 21 24
M  V30 29 1 26 27
M  V30 END BOND
M  V30 BEGIN COLLECTION
M  V30 MDLV30/STERAC1 ATOMS=(1 4)
M  V30 END COLLECTION
M  V30 END CTAB
M  END
>  <Molecule Name>


>  <status>
DISCONTINUED

>  <cas>
64706-54-3

>  <name>
BEPRIDIL

>  <ID>
565

>  <Smiles>
CC(C)COCC(CN(Cc1ccccc1)c1ccccc1)N1CCCC1

$$$$
_c001
Actelion Java MolfileCreator 2.0

  0  0  0  0  0  0              0 V3000
M  V30 BEGIN CTAB
M  V30 COUNTS 87 92 0 0 0
M  V30 BEGIN ATOM
M  V30 1 O 22.7384 -5.3478 0.0 0
M  V30 2 C 22.1506 -4.5388 0.0 0
M  V30 3 N 22.4596 -3.5877 0.0 0
M  V30 4 C 21.1506 -4.5388 0.0 0
M  V30 5 C 21.6506 -2.9999 0.0 0 CFG=1
M  V30 6 C 20.8416 -3.5877 0.0 0
M  V30 7 C 21.6506 -1.9999 0.0 0
M  V30 8 O 22.5166 -1.4999 0.0 0
M  V30 9 N 20.7846 -1.4999 0.0 0
M  V30 10 C 19.9185 -1.9999 0.0 0 CFG=2
M  V30 11 C 19.0525 -1.4999 0.0 0
M  V30 12 C 19.9185 -2.9999 0.0 0
M  V30 13 O 18.1865 -2.0 0.0 0
M  V30 14 N 19.0525 -0.5 0.0 0
M  V30 15 C 19.0525 -3.5 0.0 0
M  V30 16 C 18.1865 0.0 0.0 0 CFG=2
M  V30 17 N 18.948 -4.4945 0.0 0
M  V30 18 C 18.139 -3.0932 0.0 0
M  V30 19 C 17.3205 -0.5 0.0 0
M  V30 20 C 18.1865 1.0 0.0 0
M  V30 21 C 17.9698 -4.7024 0.0 0
M  V30 22 N 17.4698 -3.8364 0.0 0
M  V30 23 O 17.3205 -1.4999 0.0 0
M  V30 24 N 16.4544 0.0 0.0 0
M  V30 25 C 17.3205 1.5 0.0 0
M  V30 26 C 15.5884 -0.5 0.0 0 CFG=2
M  V30 27 C 17.2159 2.4945 0.0 0
M  V30 28 C 16.4069 1.0932 0.0 0
M  V30 29 C 14.7224 0.0 0.0 0
M  V30 30 C 15.5884 -1.4999 0.0 0
M  V30 31 C 16.2378 2.7024 0.0 0
M  V30 32 C 17.8851 3.2376 0.0 0
M  V30 33 N 15.7378 1.8364 0.0 0
M  V30 34 O 14.7224 1.0 0.0 0
M  V30 35 N 13.8564 -0.5 0.0 0
M  V30 36 O 16.4544 -2.0 0.0 0
M  V30 37 C 15.9288 3.6534 0.0 0
M  V30 38 C 17.576 4.1887 0.0 0
M  V30 39 C 12.9903 0.0 0.0 0 CFG=2
M  V30 40 C 16.5979 4.3966 0.0 0
M  V30 41 C 12.1243 -0.5 0.0 0
M  V30 42 C 12.9903 0.9999 0.0 0
M  V30 43 O 12.1243 -1.5 0.0 0
M  V30 44 N 11.2583 0.0 0.0 0
M  V30 45 C 12.1243 1.4999 0.0 0
M  V30 46 C 10.3923 -0.5 0.0 0 CFG=1
M  V30 47 C 12.1243 2.4999 0.0 0
M  V30 48 C 11.2583 0.9999 0.0 0
M  V30 49 C 9.5262 0.0 0.0 0
M  V30 50 C 10.3923 -1.5 0.0 0
M  V30 51 C 11.2583 2.9999 0.0 0
M  V30 52 C 10.3923 1.4999 0.0 0
M  V30 53 O 9.5262 1.0 0.0 0
M  V30 54 N 8.6602 -0.5 0.0 0
M  V30 55 C 9.5262 -1.9999 0.0 0
M  V30 56 C 10.3923 2.4999 0.0 0
M  V30 57 C 7.7942 0.0 0.0 0 CFG=2
M  V30 58 C 8.6602 -1.4999 0.0 0
M  V30 59 C 9.5262 -3.0 0.0 0
M  V30 60 O 9.5262 2.9999 0.0 0
M  V30 61 C 6.9282 -0.5 0.0 0
M  V30 62 C 7.7942 0.9999 0.0 0
M  V30 63 O 6.9282 -1.4999 0.0 0
M  V30 64 N 6.0621 0.0 0.0 0
M  V30 65 C 6.9282 1.4999 0.0 0
M  V30 66 C 5.1961 -0.5 0.0 0 CFG=2
M  V30 67 C 6.0621 0.9999 0.0 0
M  V30 68 C 6.9282 2.4999 0.0 0
M  V30 69 C 5.1961 -1.5 0.0 0
M  V30 70 C 4.3301 0.0 0.0 0
M  V30 71 O 6.0621 -2.0 0.0 0
M  V30 72 N 4.3301 -1.9999 0.0 0
M  V30 73 C 3.4641 -0.5 0.0 0
M  V30 74 C 4.2255 -2.9945 0.0 0 CFG=2
M  V30 75 C 3.4165 -1.5932 0.0 0
M  V30 76 C 2.598 0.0 0.0 0
M  V30 77 C 4.9687 -3.6636 0.0 0
M  V30 78 C 3.2474 -3.2024 0.0 0
M  V30 79 C 2.7474 -2.3364 0.0 0
M  V30 80 N 1.732 -0.5 0.0 0
M  V30 81 O 4.7608 -4.6418 0.0 0
M  V30 82 N 5.9197 -3.3546 0.0 0
M  V30 83 C 0.866 0.0 0.0 0
M  V30 84 C 6.6629 -4.0237 0.0 0
M  V30 85 N 0.866 1.0 0.0 0 CHG=1
M  V30 86 N 0.0 -0.5 0.0 0
M  V30 87 C 7.614 -3.7147 0.0 0
M  V30 END ATOM
M  V30 BEGIN BOND
M  V30 1 2 1 2
M  V30 2 1 2 3
M  V30 3 1 2 4
M  V30 4 1 5 3
M  V30 5 1 4 6
M  V30 6 1 5 7 CFG=1
M  V30 7 2 7 8
M  V30 8 1 7 9
M  V30 9 1 10 9 CFG=1
M  V30 10 1 10 11
M  V30 11 1 10 12
M  V30 12 2 11 13
M  V30 13 1 11 14
M  V30 14 1 12 15
M  V30 15 1 16 14 CFG=3
M  V30 16 1 15 17
M  V30 17 2 15 18
M  V30 18 1 16 19
M  V30 19 1 16 20
M  V30 20 2 17 21
M  V30 21 1 18 22
M  V30 22 2 19 23
M  V30 23 1 19 24
M  V30 24 1 20 25
M  V30 25 1 26 24 CFG=1
M  V30 26 1 25 27
M  V30 27 2 25 28
M  V30 28 1 26 29
M  V30 29 1 26 30
M  V30 30 2 27 31
M  V30 31 1 27 32
M  V30 32 1 28 33
M  V30 33 2 29 34
M  V30 34 1 29 35
M  V30 35 1 30 36
M  V30 36 1 31 37
M  V30 37 2 32 38
M  V30 38 1 39 35 CFG=3
M  V30 39 2 37 40
M  V30 40 1 39 41
M  V30 41 1 39 42
M  V30 42 2 41 43
M  V30 43 1 41 44
M  V30 44 1 42 45
M  V30 45 1 46 44 CFG=3
M  V30 46 2 45 47
M  V30 47 1 45 48
M  V30 48 1 46 49
M  V30 49 1 46 50
M  V30 50 1 47 51
M  V30 51 2 48 52
M  V30 52 2 49 53
M  V30 53 1 49 54
M  V30 54 1 50 55
M  V30 55 2 51 56
M  V30 56 1 57 54 CFG=3
M  V30 57 1 55 58
M  V30 58 1 55 59
M  V30 59 1 56 60
M  V30 60 1 57 61
M  V30 61 1 57 62
M  V30 62 2 61 63
M  V30 63 1 61 64
M  V30 64 1 62 65
M  V30 65 1 66 64 CFG=3
M  V30 66 1 65 67
M  V30 67 1 65 68
M  V30 68 1 66 69
M  V30 69 1 66 70
M  V30 70 2 69 71
M  V30 71 1 69 72
M  V30 72 1 70 73
M  V30 73 1 74 72
M  V30 74 1 72 75
M  V30 75 1 73 76
M  V30 76 1 74 77 CFG=3
M  V30 77 1 74 78
M  V30 78 1 75 79
M  V30 79 1 76 80
M  V30 80 2 77 81
M  V30 81 1 77 82
M  V30 82 1 80 83
M  V30 83 1 82 84
M  V30 84 2 83 85
M  V30 85 1 83 86
M  V30 86 1 84 87
M  V30 87 1 5 6
M  V30 88 1 21 22
M  V30 89 1 31 33
M  V30 90 1 38 40
M  V30 91 1 52 56
M  V30 92 1 78 79
M  V30 END BOND
M  V30 BEGIN COLLECTION
M  V30 MDLV30/STERAC1 ATOMS=(9 5 10 16 26 39 46 57 66 74)
M  V30 END COLLECTION
M  V30 END CTAB
M  END
>  <Molecule Name>
_c001

>  <status>
-

>  <cas>
53714-56-0

>  <name>
LEUPROLIDE

>  <ID>
566

>  <Smiles>
CCNC([C@H](CCC1)N1C([C@H](CCCNC(N)=[NH2+])NC([C@H](CC(C)C)NC([C@@H](CC(C)C)NC([C@H](Cc(cc1)ccc1O)NC([C@H](CO)NC([C@H](Cc1c[nH]c2c1cccc2)NC([C@H](Cc1c[nH]cn1)NC([C@H](CC1)NC1=O)=O)=O)=O)=O)=O)=O)=O)=O)=O

$$$$

Actelion Java MolfileCreator 2.0

  0  0  0  0  0  0              0 V3000
M  V30 BEGIN CTAB
M  V30 COUNTS 15 15 0 0 0
M  V30 BEGIN ATOM
M  V30 1 Cl 5.1961 2.2499 0.0 0
M  V30 2 C 6.4951 1.5 0.0 0
M  V30 3 C 6.4951 0.0 0.0 0
M  V30 4 C 7.7942 2.25 0.0 0
M  V30 5 C 7.7942 -0.7499 0.0 0
M  V30 6 C 5.1961 -0.75 0.0 0
M  V30 7 C 9.0932 1.5 0.0 0
M  V30 8 Cl 7.7942 -2.2499 0.0 0
M  V30 9 C 9.0932 0.0 0.0 0
M  V30 10 C 3.8971 0.0 0.0 0
M  V30 11 O 3.8971 1.5 0.0 0
M  V30 12 N 2.598 -0.75 0.0 0
M  V30 13 C 1.299 0.0 0.0 0
M  V30 14 N 1.299 1.5 0.0 0
M  V30 15 N 0.0 -0.75 0.0 0
M  V30 END ATOM
M  V30 BEGIN BOND
M  V30 1 1 1 2
M  V30 2 2 2 3
M  V30 3 1 2 4
M  V30 4 1 3 5
M  V30 5 1 3 6
M  V30 6 2 4 7
M  V30 7 1 5 8
M  V30 8 2 5 9
M  V30 9 1 6 10
M  V30 10 2 10 11
M  V30 11 1 10 12
M  V30 12 2 12 13
M  V30 13 1 13 14
M  V30 14 1 13 15
M  V30 15 1 7 9
M  V30 END BOND
M  V30 END CTAB
M  END
>  <Molecule Name>


>  <status>
-

>  <cas>
29110-47-2

>  <name>
GUANFACINE

>  <ID>
567

>  <Smiles>
NC(N)=NC(Cc(c(Cl)ccc1)c1Cl)=O

$$$$

Actelion Java MolfileCreator 2.0

  0  0  0  0  0  0              0 V3000
M  V30 BEGIN CTAB
M  V30 COUNTS 21 25 0 0 0
M  V30 BEGIN ATOM
M  V30 1 O 0.866 0.0 0.0 0
M  V30 2 C 0.0 -0.5 0.0 0
M  V30 3 C -0.866 0.0 0.0 0 CFG=2
M  V30 4 C 0.0 -1.4999 0.0 0
M  V30 5 O -1.0739 0.9781 0.0 0
M  V30 6 C -1.732 -0.4999 0.0 0 CFG=2
M  V30 7 C -0.9619 -1.9484 0.0 0
M  V30 8 C -2.0684 1.0826 0.0 0
M  V30 9 C -2.4751 0.1691 0.0 0
M  V30 10 C -1.732 -1.4999 0.0 0 CFG=1
M  V30 11 C -0.6055 -1.2454 0.0 0
M  V30 12 C -2.8892 1.752 0.0 0
M  V30 13 C -3.3978 -0.2936 0.0 0
M  V30 14 C -2.6933 -1.8759 0.0 0 CFG=1
M  V30 15 C -0.6643 -2.2954 0.0 0
M  V30 16 O -2.6897 2.7319 0.0 0
M  V30 17 C -3.8496 1.4733 0.0 0
M  V30 18 C -4.0885 0.5023 0.0 0
M  V30 19 C -3.5023 -1.2881 0.0 0
M  V30 20 N -1.5991 -2.6724 0.0 0
M  V30 21 C -1.6974 -3.6675 0.0 0
M  V30 END ATOM
M  V30 BEGIN BOND
M  V30 1 2 1 2
M  V30 2 1 3 2
M  V30 3 1 2 4
M  V30 4 1 3 5 CFG=1
M  V30 5 1 6 3
M  V30 6 1 4 7
M  V30 7 1 5 8
M  V30 8 1 6 9
M  V30 9 1 10 6
M  V30 10 1 6 11 CFG=3
M  V30 11 1 8 12
M  V30 12 1 9 13
M  V30 13 1 14 10
M  V30 14 1 11 15
M  V30 15 1 12 16
M  V30 16 2 12 17
M  V30 17 2 13 18
M  V30 18 1 13 19
M  V30 19 1 14 20 CFG=3
M  V30 20 1 20 21
M  V30 21 1 10 7 CFG=1
M  V30 22 2 8 9
M  V30 23 1 14 19
M  V30 24 1 15 20
M  V30 25 1 17 18
M  V30 END BOND
M  V30 BEGIN COLLECTION
M  V30 MDLV30/STERAC1 ATOMS=(4 3 6 10 14)
M  V30 END COLLECTION
M  V30 END CTAB
M  END
>  <Molecule Name>


>  <status>
-

>  <cas>
466-99-9

>  <name>
HYDROMORPHONE

>  <ID>
568

>  <Smiles>
CN(CC1)[C@H](Cc2ccc3O)[C@H](CC4)[C@@]11c2c3O[C@H]1C4=O

$$$$

Actelion Java MolfileCreator 2.0

  0  0  0  0  0  0              0 V3000
M  V30 BEGIN CTAB
M  V30 COUNTS 28 31 0 0 0
M  V30 BEGIN ATOM
M  V30 1 O 1.732 -0.5 0.0 0
M  V30 2 C 0.866 0.0 0.0 0
M  V30 3 N 0.866 1.0 0.0 0
M  V30 4 C 0.0 -0.5 0.0 0 CFG=1
M  V30 5 C 1.732 1.4999 0.0 0
M  V30 6 C 0.0 1.4999 0.0 0
M  V30 7 O -0.9135 -0.0932 0.0 0
M  V30 8 C -0.1045 -1.4945 0.0 0
M  V30 9 C 1.732 2.5 0.0 0
M  V30 10 C 0.0 2.5 0.0 0
M  V30 11 C -1.5826 -0.8364 0.0 0
M  V30 12 C -1.0826 -1.7024 0.0 0
M  V30 13 N 0.866 3.0 0.0 0
M  V30 14 C 0.866 4.0 0.0 0
M  V30 15 N 1.732 4.5 0.0 0
M  V30 16 N 0.0 4.4999 0.0 0
M  V30 17 C 1.732 5.5 0.0 0
M  V30 18 C 0.0 5.4999 0.0 0
M  V30 19 N 2.598 6.0 0.0 0
M  V30 20 C 0.866 6.0 0.0 0
M  V30 21 C -0.866 5.9999 0.0 0
M  V30 22 C 0.866 7.0 0.0 0
M  V30 23 C -0.866 6.9999 0.0 0
M  V30 24 C 0.0 7.4999 0.0 0
M  V30 25 O -1.732 7.5 0.0 0
M  V30 26 O 0.0 8.5 0.0 0
M  V30 27 C -2.598 6.9999 0.0 0
M  V30 28 C -0.866 8.9999 0.0 0
M  V30 END ATOM
M  V30 BEGIN BOND
M  V30 1 2 1 2
M  V30 2 1 2 3
M  V30 3 1 4 2 CFG=3
M  V30 4 1 3 5
M  V30 5 1 3 6
M  V30 6 1 4 7
M  V30 7 1 4 8
M  V30 8 1 5 9
M  V30 9 1 6 10
M  V30 10 1 7 11
M  V30 11 1 8 12
M  V30 12 1 9 13
M  V30 13 1 13 14
M  V30 14 1 14 15
M  V30 15 2 14 16
M  V30 16 2 15 17
M  V30 17 1 16 18
M  V30 18 1 17 19
M  V30 19 1 17 20
M  V30 20 2 18 21
M  V30 21 2 20 22
M  V30 22 1 21 23
M  V30 23 1 22 24
M  V30 24 1 23 25
M  V30 25 1 24 26
M  V30 26 1 25 27
M  V30 27 1 26 28
M  V30 28 1 10 13
M  V30 29 1 11 12
M  V30 30 1 18 20
M  V30 31 2 23 24
M  V30 END BOND
M  V30 BEGIN COLLECTION
M  V30 MDLV30/STERAC1 ATOMS=(1 4)
M  V30 END COLLECTION
M  V30 END CTAB
M  END
>  <Molecule Name>


>  <status>
-

>  <cas>
63590-64-7

>  <name>
TERAZOSIN

>  <ID>
569

>  <Smiles>
COc(cc1c(N)nc(N(CC2)CCN2C(C2OCCC2)=O)nc1c1)c1OC

$$$$

Actelion Java MolfileCreator 2.0

  0  0  0  0  0  0              0 V3000
M  V30 BEGIN CTAB
M  V30 COUNTS 21 24 0 0 0
M  V30 BEGIN ATOM
M  V30 1 Cl 1.299 0.0 0.0 0
M  V30 2 C 0.0 -0.75 0.0 0
M  V30 3 C -1.299 0.0 0.0 0
M  V30 4 C 0.0 -2.2499 0.0 0
M  V30 5 C -2.598 -0.7499 0.0 0
M  V30 6 C -1.299 -2.9999 0.0 0
M  V30 7 C -3.7708 0.1852 0.0 0
M  V30 8 C -2.598 -2.2499 0.0 0
M  V30 9 N -5.2332 -0.1485 0.0 0
M  V30 10 C -3.437 1.6476 0.0 0
M  V30 11 N -3.7708 -3.1852 0.0 0
M  V30 12 C -5.884 -1.4999 0.0 0
M  V30 13 C -2.0036 2.0897 0.0 0
M  V30 14 C -4.5366 2.6678 0.0 0
M  V30 15 C -5.2332 -2.8514 0.0 0
M  V30 16 C -3.6363 -4.6791 0.0 0
M  V30 17 C -1.6699 3.5521 0.0 0
M  V30 18 C -4.2028 4.1302 0.0 0
M  V30 19 N -6.0025 -4.1391 0.0 0
M  V30 20 N -5.0156 -5.2687 0.0 0
M  V30 21 C -2.7694 4.5724 0.0 0
M  V30 END ATOM
M  V30 BEGIN BOND
M  V30 1 1 1 2
M  V30 2 2 2 3
M  V30 3 1 2 4
M  V30 4 1 3 5
M  V30 5 2 4 6
M  V30 6 1 5 7
M  V30 7 2 5 8
M  V30 8 2 7 9
M  V30 9 1 7 10
M  V30 10 1 8 11
M  V30 11 1 9 12
M  V30 12 2 10 13
M  V30 13 1 10 14
M  V30 14 1 11 15
M  V30 15 1 11 16
M  V30 16 1 13 17
M  V30 17 2 14 18
M  V30 18 2 15 19
M  V30 19 2 16 20
M  V30 20 2 17 21
M  V30 21 1 6 8
M  V30 22 1 12 15
M  V30 23 1 18 21
M  V30 24 1 19 20
M  V30 END BOND
M  V30 END CTAB
M  END
>  <Molecule Name>


>  <status>
-

>  <cas>
29975-16-4

>  <name>
ESTAZOLAM

>  <ID>
570

>  <Smiles>
Clc(cc1)cc(C(c2ccccc2)=NC2)c1-n1c2nnc1

$$$$

Actelion Java MolfileCreator 2.0

  0  0  0  0  0  0              0 V3000
M  V30 BEGIN CTAB
M  V30 COUNTS 18 20 0 0 0
M  V30 BEGIN ATOM
M  V30 1 O 0.866 0.0 0.0 0
M  V30 2 C 0.0 -0.5 0.0 0
M  V30 3 C -0.866 0.0 0.0 0
M  V30 4 C 0.0 -1.4999 0.0 0
M  V30 5 C -1.732 -0.4999 0.0 0
M  V30 6 C -0.866 -1.9999 0.0 0
M  V30 7 C -1.732 -1.4999 0.0 0
M  V30 8 C -2.598 0.0 0.0 0 CFG=2
M  V30 9 C -2.598 -1.9999 0.0 0
M  V30 10 C -3.4641 -0.4999 0.0 0 CFG=2
M  V30 11 C -3.2117 0.863 0.0 0
M  V30 12 C -1.9251 0.7397 0.0 0
M  V30 13 C -3.4641 -1.4999 0.0 0 CFG=1
M  V30 14 N -4.3301 0.0 0.0 0
M  V30 15 C -4.2032 0.9935 0.0 0
M  V30 16 C -4.5183 -1.4 0.0 0
M  V30 17 C -4.9965 0.3847 0.0 0
M  V30 18 C -5.1271 -0.6066 0.0 0
M  V30 END ATOM
M  V30 BEGIN BOND
M  V30 1 1 1 2
M  V30 2 2 2 3
M  V30 3 1 2 4
M  V30 4 1 3 5
M  V30 5 2 4 6
M  V30 6 2 5 7
M  V30 7 1 8 5
M  V30 8 1 7 9
M  V30 9 1 10 8
M  V30 10 1 8 11
M  V30 11 1 8 12 CFG=1
M  V30 12 1 13 9 CFG=3
M  V30 13 1 10 14 CFG=3
M  V30 14 1 11 15
M  V30 15 1 13 16
M  V30 16 1 15 17
M  V30 17 1 16 18
M  V30 18 1 6 7
M  V30 19 1 10 13
M  V30 20 1 17 18
M  V30 END BOND
M  V30 BEGIN COLLECTION
M  V30 MDLV30/STERAC1 ATOMS=(3 8 10 13)
M  V30 END COLLECTION
M  V30 END CTAB
M  END
>  <Molecule Name>


>  <status>
DISCONTINUED

>  <cas>
53648-55-8

>  <name>
DEZOCINE

>  <ID>
571

>  <Smiles>
C[C@](CCCCC[C@H]1C2)([C@H]1N)c1c2ccc(O)c1

$$$$

Actelion Java MolfileCreator 2.0

  0  0  0  0  0  0              0 V3000
M  V30 BEGIN CTAB
M  V30 COUNTS 24 26 0 0 0
M  V30 BEGIN ATOM
M  V30 1 O 2.598 1.0 0.0 0
M  V30 2 C 2.598 0.0 0.0 0
M  V30 3 O 3.4641 -0.5 0.0 0
M  V30 4 C 1.732 -0.5 0.0 0 CFG=1
M  V30 5 C 4.2707 -0.0342 0.0 0 CFG=1
M  V30 6 C 1.732 -1.5 0.0 0
M  V30 7 C 0.866 0.0 0.0 0
M  V30 8 C 4.3301 0.9999 0.0 0
M  V30 9 C 5.1452 -0.5078 0.0 0
M  V30 10 C 0.866 -1.9999 0.0 0
M  V30 11 C 2.598 -2.0 0.0 0
M  V30 12 O 0.0 -0.5 0.0 0
M  V30 13 C 5.5386 1.6319 0.0 0 CFG=2
M  V30 14 C 6.3476 0.2306 0.0 0 CFG=1
M  V30 15 C 0.866 -2.9999 0.0 0
M  V30 16 C 2.598 -3.0 0.0 0
M  V30 17 N 5.4341 0.6374 0.0 0 CHG=1 CFG=2
M  V30 18 C 6.5168 1.8398 0.0 0
M  V30 19 C 7.0168 0.9738 0.0 0
M  V30 20 C 1.732 -3.5 0.0 0
M  V30 21 C 4.6669 0.1926 0.0 0
M  V30 22 C 5.5885 -0.4394 0.0 0
M  V30 23 C 4.5681 -0.8625 0.0 0
M  V30 24 C 3.702 0.6374 0.0 0
M  V30 END ATOM
M  V30 BEGIN BOND
M  V30 1 2 1 2
M  V30 2 1 2 3
M  V30 3 1 4 2
M  V30 4 1 5 3 CFG=1
M  V30 5 1 4 6
M  V30 6 1 4 7 CFG=1
M  V30 7 1 5 8
M  V30 8 1 5 9
M  V30 9 2 6 10
M  V30 10 1 6 11
M  V30 11 1 7 12
M  V30 12 1 13 8 CFG=1
M  V30 13 1 14 9 CFG=1
M  V30 14 1 10 15
M  V30 15 2 11 16
M  V30 16 1 17 13
M  V30 17 1 13 18
M  V30 18 1 14 19
M  V30 19 2 15 20
M  V30 20 1 17 21
M  V30 21 1 17 22 CFG=1
M  V30 22 1 21 23
M  V30 23 1 21 24
M  V30 24 1 14 17
M  V30 25 1 16 20
M  V30 26 1 18 19
M  V30 END BOND
M  V30 BEGIN COLLECTION
M  V30 MDLV30/STEABS ATOMS=(4 5 13 14 17)
M  V30 MDLV30/STERAC1 ATOMS=(1 4)
M  V30 END COLLECTION
M  V30 END CTAB
M  END
>  <Molecule Name>


>  <status>
-

>  <cas>
60205-81-4

>  <name>
IPRATROPIUM

>  <ID>
572

>  <Smiles>
CC(C)[N@+](C)([C@H](CC1)C2)[C@@H]1C[C@H]2OC(C(CO)c1ccccc1)=O

$$$$

Actelion Java MolfileCreator 2.0

  0  0  0  0  0  0              0 V3000
M  V30 BEGIN CTAB
M  V30 COUNTS 25 26 0 0 0
M  V30 BEGIN ATOM
M  V30 1 O 10.3923 2.25 0.0 0
M  V30 2 C 11.6913 1.5 0.0 0
M  V30 3 C 11.6913 0.0 0.0 0
M  V30 4 C 12.9903 2.25 0.0 0
M  V30 5 C 10.3923 -0.75 0.0 0
M  V30 6 C 12.9903 -0.7499 0.0 0
M  V30 7 C 14.2894 1.5 0.0 0
M  V30 8 O 9.0932 0.0 0.0 0
M  V30 9 C 10.3923 -2.25 0.0 0
M  V30 10 C 12.9903 -2.2499 0.0 0
M  V30 11 C 15.5884 2.25 0.0 0
M  V30 12 C 7.7942 -0.75 0.0 0
M  V30 13 C 11.6913 -3.0 0.0 0
M  V30 14 C 16.8874 1.5 0.0 0
M  V30 15 C 15.5884 3.75 0.0 0
M  V30 16 C 6.4951 0.0 0.0 0 CFG=1
M  V30 17 C 18.1865 2.25 0.0 0
M  V30 18 C 16.8874 4.5 0.0 0
M  V30 19 O 6.4951 1.5 0.0 0
M  V30 20 C 5.1961 -0.75 0.0 0
M  V30 21 C 18.1865 3.75 0.0 0
M  V30 22 N 3.8971 0.0 0.0 0
M  V30 23 C 2.598 -0.75 0.0 0
M  V30 24 C 1.299 0.0 0.0 0
M  V30 25 C 0.0 -0.75 0.0 0
M  V30 END ATOM
M  V30 BEGIN BOND
M  V30 1 2 1 2
M  V30 2 1 2 3
M  V30 3 1 2 4
M  V30 4 2 3 5
M  V30 5 1 3 6
M  V30 6 1 4 7
M  V30 7 1 5 8
M  V30 8 1 5 9
M  V30 9 2 6 10
M  V30 10 1 7 11
M  V30 11 1 8 12
M  V30 12 2 9 13
M  V30 13 2 11 14
M  V30 14 1 11 15
M  V30 15 1 16 12
M  V30 16 1 14 17
M  V30 17 2 15 18
M  V30 18 1 16 19 CFG=3
M  V30 19 1 16 20
M  V30 20 2 17 21
M  V30 21 1 20 22
M  V30 22 1 22 23
M  V30 23 1 23 24
M  V30 24 1 24 25
M  V30 25 1 10 13
M  V30 26 1 18 21
M  V30 END BOND
M  V30 BEGIN COLLECTION
M  V30 MDLV30/STERAC1 ATOMS=(1 16)
M  V30 END COLLECTION
M  V30 END CTAB
M  END
>  <Molecule Name>


>  <status>
-

>  <cas>
54063-53-5

>  <name>
PROPAFENONE

>  <ID>
573

>  <Smiles>
CCCNCC(COc(cccc1)c1C(CCc1ccccc1)=O)O

$$$$

Actelion Java MolfileCreator 2.0

  0  0  0  0  0  0              0 V3000
M  V30 BEGIN CTAB
M  V30 COUNTS 11 10 0 0 0
M  V30 BEGIN ATOM
M  V30 1 O 4.3301 0.0 0.0 0
M  V30 2 C 3.4641 -0.5 0.0 0
M  V30 3 O 2.598 0.0 0.0 0
M  V30 4 C 3.4641 -1.5 0.0 0
M  V30 5 C 1.732 -0.5 0.0 0 CFG=2
M  V30 6 C 0.866 0.0 0.0 0
M  V30 7 C 1.732 -1.5 0.0 0
M  V30 8 N 0.0 -0.5 0.0 0 CHG=1
M  V30 9 C 0.4999 -1.366 0.0 0
M  V30 10 C -0.866 -0.9999 0.0 0
M  V30 11 C -0.4999 0.366 0.0 0
M  V30 END ATOM
M  V30 BEGIN BOND
M  V30 1 2 1 2
M  V30 2 1 2 3
M  V30 3 1 2 4
M  V30 4 1 5 3 CFG=1
M  V30 5 1 5 6
M  V30 6 1 5 7
M  V30 7 1 6 8
M  V30 8 1 8 9
M  V30 9 1 8 10
M  V30 10 1 8 11
M  V30 END BOND
M  V30 BEGIN COLLECTION
M  V30 MDLV30/STERAC1 ATOMS=(1 5)
M  V30 END COLLECTION
M  V30 END CTAB
M  END
>  <Molecule Name>


>  <status>
-

>  <cas>
55-92-5

>  <name>
METHACHOLINE

>  <ID>
574

>  <Smiles>
CC(C[N+](C)(C)C)OC(C)=O

$$$$

Actelion Java MolfileCreator 2.0

  0  0  0  0  0  0              0 V3000
M  V30 BEGIN CTAB
M  V30 COUNTS 10 9 0 0 0
M  V30 BEGIN ATOM
M  V30 1 N 5.1961 -0.5 0.0 0
M  V30 2 C 4.3301 0.0 0.0 0
M  V30 3 C 6.0621 0.0 0.0 0
M  V30 4 C 3.4641 -0.5 0.0 0
M  V30 5 C 6.9282 -0.5 0.0 0
M  V30 6 N 2.598 0.0 0.0 0
M  V30 7 N 7.7942 0.0 0.0 0
M  V30 8 C 1.732 -0.5 0.0 0
M  V30 9 C 0.866 0.0 0.0 0
M  V30 10 N 0.0 -0.5 0.0 0
M  V30 END ATOM
M  V30 BEGIN BOND
M  V30 1 1 1 2
M  V30 2 1 1 3
M  V30 3 1 2 4
M  V30 4 1 3 5
M  V30 5 1 4 6
M  V30 6 1 5 7
M  V30 7 1 6 8
M  V30 8 1 8 9
M  V30 9 1 9 10
M  V30 END BOND
M  V30 END CTAB
M  END
>  <Molecule Name>


>  <status>
-

>  <cas>
112-24-3

>  <name>
TRIENTINE

>  <ID>
575

>  <Smiles>
NCCNCCNCCN

$$$$

Actelion Java MolfileCreator 2.0

  0  0  0  0  0  0              0 V3000
M  V30 BEGIN CTAB
M  V30 COUNTS 19 20 0 0 0
M  V30 BEGIN ATOM
M  V30 1 Cl 0.0 2.4999 0.0 0
M  V30 2 C 0.866 2.9999 0.0 0
M  V30 3 C 1.732 2.5 0.0 0
M  V30 4 C 0.866 3.9999 0.0 0
M  V30 5 N 1.732 1.4999 0.0 0
M  V30 6 C 2.598 3.0 0.0 0
M  V30 7 C 1.732 4.5 0.0 0
M  V30 8 C 2.598 1.0 0.0 0
M  V30 9 Cl 3.4641 2.5 0.0 0
M  V30 10 C 2.598 4.0 0.0 0
M  V30 11 C 2.598 0.0 0.0 0
M  V30 12 C 3.4641 1.4999 0.0 0
M  V30 13 C 3.4641 -0.5 0.0 0
M  V30 14 C 1.732 -0.5 0.0 0
M  V30 15 C 4.3301 1.0 0.0 0
M  V30 16 C 4.3301 0.0 0.0 0
M  V30 17 C 0.866 0.0 0.0 0
M  V30 18 O 0.866 1.0 0.0 0
M  V30 19 O 0.0 -0.5 0.0 0 CHG=-1
M  V30 END ATOM
M  V30 BEGIN BOND
M  V30 1 1 1 2
M  V30 2 2 2 3
M  V30 3 1 2 4
M  V30 4 1 3 5
M  V30 5 1 3 6
M  V30 6 2 4 7
M  V30 7 1 5 8
M  V30 8 1 6 9
M  V30 9 2 6 10
M  V30 10 2 8 11
M  V30 11 1 8 12
M  V30 12 1 11 13
M  V30 13 1 11 14
M  V30 14 2 12 15
M  V30 15 2 13 16
M  V30 16 1 14 17
M  V30 17 2 17 18
M  V30 18 1 17 19
M  V30 19 1 7 10
M  V30 20 1 15 16
M  V30 END BOND
M  V30 END CTAB
M  END
>  <Molecule Name>


>  <status>
-

>  <cas>
15307-86-5

>  <name>
DICLOFENAC

>  <ID>
576

>  <Smiles>
[O-]C(Cc(cccc1)c1Nc(c(Cl)ccc1)c1Cl)=O

$$$$

Actelion Java MolfileCreator 2.0

  0  0  0  0  0  0              0 V3000
M  V30 BEGIN CTAB
M  V30 COUNTS 27 27 0 0 0
M  V30 BEGIN ATOM
M  V30 1 O 10.7334 2.4954 0.0 0
M  V30 2 C 11.8481 1.4917 0.0 0
M  V30 3 C 11.6913 0.0 0.0 0 CFG=2
M  V30 4 C 13.3153 1.8036 0.0 0
M  V30 5 C 13.0616 -0.6101 0.0 0 CFG=1
M  V30 6 C 10.3923 -0.75 0.0 0
M  V30 7 C 14.0653 0.5046 0.0 0 CFG=1
M  V30 8 C 13.3735 -2.0773 0.0 0
M  V30 9 C 9.0932 0.0 0.0 0
M  V30 10 O 15.5571 0.3478 0.0 0
M  V30 11 C 14.8001 -2.5408 0.0 0
M  V30 12 C 7.7942 -0.75 0.0 0
M  V30 13 C 15.112 -4.008 0.0 0
M  V30 14 C 6.4952 0.0 0.0 0
M  V30 15 C 16.5385 -4.4716 0.0 0 CFG=1
M  V30 16 C 5.1961 -0.75 0.0 0
M  V30 17 O 18.0057 -4.1597 0.0 0
M  V30 18 C 16.8504 -5.9388 0.0 0
M  V30 19 C 17.002 -3.045 0.0 0
M  V30 20 C 3.8971 0.0 0.0 0
M  V30 21 C 18.277 -6.4023 0.0 0
M  V30 22 C 2.598 -0.75 0.0 0
M  V30 23 C 18.5889 -7.8695 0.0 0
M  V30 24 O 2.598 -2.25 0.0 0
M  V30 25 O 1.299 0.0 0.0 0
M  V30 26 C 20.0155 -8.3331 0.0 0
M  V30 27 C 0.0 -0.75 0.0 0
M  V30 END ATOM
M  V30 BEGIN BOND
M  V30 1 2 1 2
M  V30 2 1 3 2
M  V30 3 1 2 4
M  V30 4 1 5 3
M  V30 5 1 3 6 CFG=3
M  V30 6 1 7 4
M  V30 7 1 5 8 CFG=1
M  V30 8 1 6 9
M  V30 9 1 7 10 CFG=3
M  V30 10 2 8 11
M  V30 11 1 9 12
M  V30 12 1 11 13
M  V30 13 1 12 14
M  V30 14 1 15 13
M  V30 15 1 14 16
M  V30 16 1 15 17 CFG=1
M  V30 17 1 15 18
M  V30 18 1 15 19
M  V30 19 1 16 20
M  V30 20 1 18 21
M  V30 21 1 20 22
M  V30 22 1 21 23
M  V30 23 2 22 24
M  V30 24 1 22 25
M  V30 25 1 23 26
M  V30 26 1 25 27
M  V30 27 1 5 7
M  V30 END BOND
M  V30 BEGIN COLLECTION
M  V30 MDLV30/STERAC1 ATOMS=(4 3 5 7 15)
M  V30 END COLLECTION
M  V30 END CTAB
M  END
>  <Molecule Name>


>  <status>
-

>  <cas>
59122-46-2

>  <name>
MISOPROSTOL

>  <ID>
577

>  <Smiles>
CCCC[C@@](C)(C/C=C/[C@@H]([C@H](CCCCCCC(OC)=O)C(C1)=O)[C@H]1O)O

$$$$

Actelion Java MolfileCreator 2.0

  0  0  0  0  0  0              0 V3000
M  V30 BEGIN CTAB
M  V30 COUNTS 21 22 0 0 0
M  V30 BEGIN ATOM
M  V30 1 O 5.1961 -4.5 0.0 0
M  V30 2 C 5.1961 -3.5 0.0 0
M  V30 3 N 6.0621 -3.0 0.0 0
M  V30 4 C 4.3301 -2.9999 0.0 0
M  V30 5 C 6.0621 -2.0 0.0 0
M  V30 6 C 4.3301 -2.0 0.0 0
M  V30 7 C 5.1961 -1.5 0.0 0
M  V30 8 C 6.9282 -1.5 0.0 0
M  V30 9 C 5.1961 -0.5 0.0 0
M  V30 10 C 6.9282 -0.5 0.0 0
M  V30 11 O 4.3301 0.0 0.0 0
M  V30 12 C 6.0621 0.0 0.0 0
M  V30 13 C 3.4641 -0.5 0.0 0
M  V30 14 C 2.598 0.0 0.0 0 CFG=1
M  V30 15 O 2.598 1.0 0.0 0
M  V30 16 C 1.732 -0.5 0.0 0
M  V30 17 N 0.866 0.0 0.0 0
M  V30 18 C 0.0 -0.5 0.0 0
M  V30 19 C 0.4999 -1.366 0.0 0
M  V30 20 C -0.866 -0.9999 0.0 0
M  V30 21 C -0.4999 0.366 0.0 0
M  V30 END ATOM
M  V30 BEGIN BOND
M  V30 1 2 1 2
M  V30 2 1 2 3
M  V30 3 1 2 4
M  V30 4 1 3 5
M  V30 5 1 4 6
M  V30 6 2 5 7
M  V30 7 1 5 8
M  V30 8 1 7 9
M  V30 9 2 8 10
M  V30 10 1 9 11
M  V30 11 2 9 12
M  V30 12 1 11 13
M  V30 13 1 14 13
M  V30 14 1 14 15 CFG=3
M  V30 15 1 14 16
M  V30 16 1 16 17
M  V30 17 1 17 18
M  V30 18 1 18 19
M  V30 19 1 18 20
M  V30 20 1 18 21
M  V30 21 1 6 7
M  V30 22 1 10 12
M  V30 END BOND
M  V30 BEGIN COLLECTION
M  V30 MDLV30/STERAC1 ATOMS=(1 14)
M  V30 END COLLECTION
M  V30 END CTAB
M  END
>  <Molecule Name>


>  <status>
-

>  <cas>
51781-06-7

>  <name>
CARTEOLOL

>  <ID>
578

>  <Smiles>
CC(C)(C)NCC(COc1cccc(N2)c1CCC2=O)O

$$$$

Actelion Java MolfileCreator 2.0

  0  0  0  0  0  0              0 V3000
M  V30 BEGIN CTAB
M  V30 COUNTS 21 22 0 0 0
M  V30 BEGIN ATOM
M  V30 1 O 6.9282 -3.5 0.0 0
M  V30 2 C 6.0621 -3.0 0.0 0
M  V30 3 C 6.0621 -2.0 0.0 0
M  V30 4 C 5.1961 -3.5 0.0 0
M  V30 5 C 5.1961 -1.5 0.0 0
M  V30 6 C 6.9282 -1.5 0.0 0
M  V30 7 C 4.3301 -2.9999 0.0 0
M  V30 8 C 5.1961 -0.5 0.0 0
M  V30 9 C 4.3301 -2.0 0.0 0
M  V30 10 C 6.9282 -0.5 0.0 0
M  V30 11 O 4.3301 0.0 0.0 0
M  V30 12 C 6.0621 0.0 0.0 0
M  V30 13 C 3.4641 -0.5 0.0 0
M  V30 14 C 2.598 0.0 0.0 0 CFG=1
M  V30 15 O 2.598 1.0 0.0 0
M  V30 16 C 1.732 -0.5 0.0 0
M  V30 17 N 0.866 0.0 0.0 0
M  V30 18 C 0.0 -0.5 0.0 0
M  V30 19 C 0.4999 -1.366 0.0 0
M  V30 20 C -0.866 -0.9999 0.0 0
M  V30 21 C -0.4999 0.366 0.0 0
M  V30 END ATOM
M  V30 BEGIN BOND
M  V30 1 2 1 2
M  V30 2 1 2 3
M  V30 3 1 2 4
M  V30 4 2 3 5
M  V30 5 1 3 6
M  V30 6 1 4 7
M  V30 7 1 5 8
M  V30 8 1 5 9
M  V30 9 2 6 10
M  V30 10 1 8 11
M  V30 11 2 8 12
M  V30 12 1 11 13
M  V30 13 1 14 13
M  V30 14 1 14 15 CFG=3
M  V30 15 1 14 16
M  V30 16 1 16 17
M  V30 17 1 17 18
M  V30 18 1 18 19
M  V30 19 1 18 20
M  V30 20 1 18 21
M  V30 21 1 7 9
M  V30 22 1 10 12
M  V30 END BOND
M  V30 BEGIN COLLECTION
M  V30 MDLV30/STERAC1 ATOMS=(1 14)
M  V30 END COLLECTION
M  V30 END CTAB
M  END
>  <Molecule Name>


>  <status>
-

>  <cas>
47141-42-4

>  <name>
LEVOBUNOLOL

>  <ID>
579

>  <Smiles>
CC(C)(C)NCC(COc1cccc2c1CCCC2=O)O

$$$$

Actelion Java MolfileCreator 2.0

  0  0  0  0  0  0              0 V3000
M  V30 BEGIN CTAB
M  V30 COUNTS 27 27 0 0 0
M  V30 BEGIN ATOM
M  V30 1 O 10.7334 2.4954 0.0 0
M  V30 2 C 11.8481 1.4917 0.0 0
M  V30 3 C 11.6913 0.0 0.0 0 CFG=1
M  V30 4 C 13.3153 1.8036 0.0 0
M  V30 5 C 13.0616 -0.6101 0.0 0 CFG=2
M  V30 6 C 10.3923 -0.75 0.0 0
M  V30 7 C 14.0653 0.5046 0.0 0 CFG=2
M  V30 8 C 13.3735 -2.0773 0.0 0
M  V30 9 C 9.0932 0.0 0.0 0
M  V30 10 O 15.5571 0.3478 0.0 0
M  V30 11 C 14.8001 -2.5408 0.0 0
M  V30 12 C 7.7942 -0.75 0.0 0
M  V30 13 C 15.112 -4.008 0.0 0
M  V30 14 C 6.4952 0.0 0.0 0
M  V30 15 C 16.5385 -4.4716 0.0 0 CFG=1
M  V30 16 C 5.1961 -0.75 0.0 0
M  V30 17 O 18.0057 -4.1597 0.0 0
M  V30 18 C 16.8504 -5.9388 0.0 0
M  V30 19 C 17.002 -3.045 0.0 0
M  V30 20 C 3.8971 0.0 0.0 0
M  V30 21 C 18.277 -6.4023 0.0 0
M  V30 22 C 2.598 -0.75 0.0 0
M  V30 23 C 18.5889 -7.8695 0.0 0
M  V30 24 O 2.598 -2.25 0.0 0
M  V30 25 O 1.299 0.0 0.0 0
M  V30 26 C 20.0155 -8.3331 0.0 0
M  V30 27 C 0.0 -0.75 0.0 0
M  V30 END ATOM
M  V30 BEGIN BOND
M  V30 1 2 1 2
M  V30 2 1 3 2
M  V30 3 1 2 4
M  V30 4 1 5 3
M  V30 5 1 3 6 CFG=1
M  V30 6 1 7 4
M  V30 7 1 5 8 CFG=3
M  V30 8 1 6 9
M  V30 9 1 7 10 CFG=1
M  V30 10 2 8 11
M  V30 11 1 9 12
M  V30 12 1 11 13
M  V30 13 1 12 14
M  V30 14 1 15 13
M  V30 15 1 14 16
M  V30 16 1 15 17 CFG=1
M  V30 17 1 15 18
M  V30 18 1 15 19
M  V30 19 1 16 20
M  V30 20 1 18 21
M  V30 21 1 20 22
M  V30 22 1 21 23
M  V30 23 2 22 24
M  V30 24 1 22 25
M  V30 25 1 23 26
M  V30 26 1 25 27
M  V30 27 1 5 7
M  V30 END BOND
M  V30 BEGIN COLLECTION
M  V30 MDLV30/STERAC1 ATOMS=(4 3 5 7 15)
M  V30 END COLLECTION
M  V30 END CTAB
M  END
>  <Molecule Name>


>  <status>
-

>  <cas>
59122-46-2

>  <name>
MISOPROSTOL

>  <ID>
580

>  <Smiles>
CCCC[C@@](C)(C/C=C/[C@H]([C@@H](CCCCCCC(OC)=O)C(C1)=O)[C@@H]1O)O

$$$$

Actelion Java MolfileCreator 2.0

  0  0  0  0  0  0              0 V3000
M  V30 BEGIN CTAB
M  V30 COUNTS 22 23 0 0 0
M  V30 BEGIN ATOM
M  V30 1 O 7.7942 -0.75 0.0 0
M  V30 2 C 9.0932 0.0 0.0 0
M  V30 3 C 6.4951 0.0 0.0 0
M  V30 4 C 10.3923 -0.75 0.0 0
M  V30 5 C 9.0932 1.4999 0.0 0
M  V30 6 C 5.1961 -0.75 0.0 0 CFG=1
M  V30 7 C 11.6913 0.0 0.0 0
M  V30 8 C 10.3923 2.2499 0.0 0
M  V30 9 O 5.1961 -2.25 0.0 0
M  V30 10 C 3.8971 0.0 0.0 0
M  V30 11 C 11.6913 1.4999 0.0 0
M  V30 12 N 2.598 -0.75 0.0 0
M  V30 13 C 12.9903 2.2499 0.0 0
M  V30 14 C 1.299 0.0 0.0 0
M  V30 15 C 14.2894 1.4999 0.0 0
M  V30 16 C 1.299 1.5 0.0 0
M  V30 17 C 0.0 -0.75 0.0 0
M  V30 18 O 15.5884 2.2499 0.0 0
M  V30 19 C 16.8874 1.4999 0.0 0
M  V30 20 C 18.1865 2.2499 0.0 0
M  V30 21 C 19.6865 2.2499 0.0 0
M  V30 22 C 18.9365 3.549 0.0 0
M  V30 END ATOM
M  V30 BEGIN BOND
M  V30 1 1 1 2
M  V30 2 1 1 3
M  V30 3 2 2 4
M  V30 4 1 2 5
M  V30 5 1 6 3
M  V30 6 1 4 7
M  V30 7 2 5 8
M  V30 8 1 6 9 CFG=1
M  V30 9 1 6 10
M  V30 10 2 7 11
M  V30 11 1 10 12
M  V30 12 1 11 13
M  V30 13 1 12 14
M  V30 14 1 13 15
M  V30 15 1 14 16
M  V30 16 1 14 17
M  V30 17 1 15 18
M  V30 18 1 18 19
M  V30 19 1 19 20
M  V30 20 1 20 21
M  V30 21 1 20 22
M  V30 22 1 8 11
M  V30 23 1 21 22
M  V30 END BOND
M  V30 BEGIN COLLECTION
M  V30 MDLV30/STERAC1 ATOMS=(1 6)
M  V30 END COLLECTION
M  V30 END CTAB
M  END
>  <Molecule Name>


>  <status>
-

>  <cas>
63659-18-7

>  <name>
LEVOBETAXOLOL

>  <ID>
581

>  <Smiles>
CC(C)NCC(COc1ccc(CCOCC2CC2)cc1)O

$$$$
_c001
Actelion Java MolfileCreator 2.0

  0  0  0  0  0  0              0 V3000
M  V30 BEGIN CTAB
M  V30 COUNTS 11 11 0 0 0
M  V30 BEGIN ATOM
M  V30 1 O 2.598 -0.75 0.0 0
M  V30 2 C 1.299 0.0 0.0 0
M  V30 3 O 1.299 1.5 0.0 0 CHG=-1
M  V30 4 C 0.0 -0.75 0.0 0 CFG=1
M  V30 5 C -1.299 0.0 0.0 0
M  V30 6 C 0.0 -2.2499 0.0 0
M  V30 7 C -2.598 -0.7499 0.0 0
M  V30 8 C -1.299 -2.9999 0.0 0
M  V30 9 C -2.598 -2.2499 0.0 0 CFG=1
M  V30 10 C -3.8971 -2.9999 0.0 0
M  V30 11 N -3.8971 -4.4999 0.0 0
M  V30 END ATOM
M  V30 BEGIN BOND
M  V30 1 2 1 2
M  V30 2 1 2 3
M  V30 3 1 4 2 CFG=3
M  V30 4 1 4 5
M  V30 5 1 4 6
M  V30 6 1 5 7
M  V30 7 1 6 8
M  V30 8 1 9 7
M  V30 9 1 9 10 CFG=1
M  V30 10 1 10 11
M  V30 11 1 8 9
M  V30 END BOND
M  V30 BEGIN COLLECTION
M  V30 MDLV30/STEABS ATOMS=(2 4 9)
M  V30 END COLLECTION
M  V30 END CTAB
M  END
>  <Molecule Name>
_c001

>  <status>
-

>  <cas>
1197-18-8

>  <name>
TRANEXAMIC ACID

>  <ID>
582

>  <Smiles>
NC[C@H](CC1)CC[C@@H]1C([O-])=O

$$$$

Actelion Java MolfileCreator 2.0

  0  0  0  0  0  0              0 V3000
M  V30 BEGIN CTAB
M  V30 COUNTS 32 34 0 0 0
M  V30 BEGIN ATOM
M  V30 1 O 9.0932 -2.9999 0.0 0
M  V30 2 C 10.3923 -2.25 0.0 0
M  V30 3 C 11.6913 -3.0 0.0 0
M  V30 4 C 10.3923 -0.75 0.0 0
M  V30 5 C 12.9903 -2.25 0.0 0
M  V30 6 C 11.6913 -4.5 0.0 0
M  V30 7 C 11.6913 0.0 0.0 0
M  V30 8 C 9.0932 0.0 0.0 0
M  V30 9 C 12.9903 -0.75 0.0 0
M  V30 10 C 14.2894 -3.0 0.0 0
M  V30 11 O 10.3923 -5.2499 0.0 0
M  V30 12 C 12.9903 -5.25 0.0 0
M  V30 13 C 11.6913 1.4999 0.0 0
M  V30 14 N 7.7942 -0.75 0.0 0
M  V30 15 C 9.0932 1.5 0.0 0
M  V30 16 O 14.2894 0.0 0.0 0
M  V30 17 O 15.5884 -2.25 0.0 0
M  V30 18 C 14.2894 -4.5 0.0 0
M  V30 19 N 12.9903 2.2499 0.0 0
M  V30 20 C 10.3923 2.2499 0.0 0
M  V30 21 C 6.4951 0.0 0.0 0
M  V30 22 C 14.2894 1.4999 0.0 0
M  V30 23 C 5.1961 -0.75 0.0 0
M  V30 24 C 15.5884 2.2499 0.0 0
M  V30 25 N 3.8971 0.0 0.0 0
M  V30 26 N 16.8874 1.4999 0.0 0
M  V30 27 C 2.598 -0.75 0.0 0
M  V30 28 C 18.1865 2.2499 0.0 0
M  V30 29 C 1.299 0.0 0.0 0
M  V30 30 C 19.4855 1.4999 0.0 0
M  V30 31 O 0.0 -0.75 0.0 0
M  V30 32 O 20.7846 2.2499 0.0 0
M  V30 END ATOM
M  V30 BEGIN BOND
M  V30 1 2 1 2
M  V30 2 1 2 3
M  V30 3 1 2 4
M  V30 4 2 3 5
M  V30 5 1 3 6
M  V30 6 2 4 7
M  V30 7 1 4 8
M  V30 8 1 5 9
M  V30 9 1 5 10
M  V30 10 1 6 11
M  V30 11 2 6 12
M  V30 12 1 7 13
M  V30 13 1 8 14
M  V30 14 2 8 15
M  V30 15 2 9 16
M  V30 16 1 10 17
M  V30 17 2 10 18
M  V30 18 1 13 19
M  V30 19 2 13 20
M  V30 20 1 14 21
M  V30 21 1 19 22
M  V30 22 1 21 23
M  V30 23 1 22 24
M  V30 24 1 23 25
M  V30 25 1 24 26
M  V30 26 1 25 27
M  V30 27 1 26 28
M  V30 28 1 27 29
M  V30 29 1 28 30
M  V30 30 1 29 31
M  V30 31 1 30 32
M  V30 32 1 7 9
M  V30 33 1 12 18
M  V30 34 1 15 20
M  V30 END BOND
M  V30 END CTAB
M  END
>  <Molecule Name>


>  <status>
-

>  <cas>
65271-80-9

>  <name>
MITOXANTRONE

>  <ID>
583

>  <Smiles>
OCCNCCNc(c(C(c1c2c(O)ccc1O)=O)c1C2=O)ccc1NCCNCCO

$$$$

Actelion Java MolfileCreator 2.0

  0  0  0  0  0  0              0 V3000
M  V30 BEGIN CTAB
M  V30 COUNTS 25 26 0 0 0
M  V30 BEGIN ATOM
M  V30 1 Cl 11.6913 -9.0 0.0 0
M  V30 2 C 11.6913 -7.5 0.0 0
M  V30 3 C 12.9904 -6.75 0.0 0
M  V30 4 C 10.3923 -6.75 0.0 0
M  V30 5 C 12.9904 -5.25 0.0 0
M  V30 6 C 10.3923 -5.25 0.0 0
M  V30 7 C 11.6913 -4.5 0.0 0
M  V30 8 C 11.6913 -3.0 0.0 0
M  V30 9 O 12.9904 -2.25 0.0 0
M  V30 10 C 10.3923 -2.25 0.0 0
M  V30 11 C 10.3923 -0.75 0.0 0
M  V30 12 C 9.0932 -3.0 0.0 0
M  V30 13 C 9.0932 0.0 0.0 0
M  V30 14 C 7.7942 -2.25 0.0 0
M  V30 15 C 7.7942 -0.75 0.0 0
M  V30 16 O 6.4952 0.0 0.0 0
M  V30 17 C 5.1961 -0.75 0.0 0
M  V30 18 C 3.8971 0.0 0.0 0
M  V30 19 C 4.4461 -2.049 0.0 0
M  V30 20 C 5.9461 -2.049 0.0 0
M  V30 21 O 3.8971 1.5 0.0 0
M  V30 22 O 2.598 -0.75 0.0 0
M  V30 23 C 1.299 0.0 0.0 0
M  V30 24 C 1.299 1.5 0.0 0
M  V30 25 C 0.0 -0.75 0.0 0
M  V30 END ATOM
M  V30 BEGIN BOND
M  V30 1 1 1 2
M  V30 2 2 2 3
M  V30 3 1 2 4
M  V30 4 1 3 5
M  V30 5 2 4 6
M  V30 6 2 5 7
M  V30 7 1 7 8
M  V30 8 2 8 9
M  V30 9 1 8 10
M  V30 10 2 10 11
M  V30 11 1 10 12
M  V30 12 1 11 13
M  V30 13 2 12 14
M  V30 14 2 13 15
M  V30 15 1 15 16
M  V30 16 1 16 17
M  V30 17 1 17 18
M  V30 18 1 17 19
M  V30 19 1 17 20
M  V30 20 2 18 21
M  V30 21 1 18 22
M  V30 22 1 22 23
M  V30 23 1 23 24
M  V30 24 1 23 25
M  V30 25 1 6 7
M  V30 26 1 14 15
M  V30 END BOND
M  V30 END CTAB
M  END
>  <Molecule Name>


>  <status>
-

>  <cas>
49562-28-9

>  <name>
FENOFIBRATE

>  <ID>
584

>  <Smiles>
CC(C)OC(C(C)(C)Oc(cc1)ccc1C(c(cc1)ccc1Cl)=O)=O

$$$$

Actelion Java MolfileCreator 2.0

  0  0  0  0  0  0              0 V3000
M  V30 BEGIN CTAB
M  V30 COUNTS 32 35 0 0 0
M  V30 BEGIN ATOM
M  V30 1 Cl 3.8692 -1.7103 0.0 0
M  V30 2 C 2.6058 -0.8898 0.0 0
M  V30 3 C 1.2634 -1.5737 0.0 0
M  V30 4 O 1.3653 -2.9309 0.0 0
M  V30 5 C 0.0 -0.7532 0.0 0 CFG=2
M  V30 6 O 1.3046 0.0 0.0 0
M  V30 7 C -1.3762 -0.1405 0.0 0 CFG=2
M  V30 8 C -0.1574 -2.2515 0.0 0 CFG=2
M  V30 9 C 1.3046 1.5065 0.0 0
M  V30 10 C -2.3843 -1.26 0.0 0 CFG=1
M  V30 11 C -1.8418 1.2922 0.0 0
M  V30 12 C -0.2567 0.8675 0.0 0
M  V30 13 C -1.631 -2.5647 0.0 0
M  V30 14 C 0.8717 -3.3332 0.0 0
M  V30 15 O 0.0 2.2597 0.0 0
M  V30 16 C 2.6093 2.2597 0.0 0
M  V30 17 C -3.8579 -0.9468 0.0 0 CFG=1
M  V30 18 C -3.3154 1.6055 0.0 0 CFG=1
M  V30 19 C 2.6093 3.7663 0.0 0
M  V30 20 C -4.3234 0.4859 0.0 0 CFG=1
M  V30 21 C -4.866 -2.0664 0.0 0
M  V30 22 O -3.7809 3.0383 0.0 0
M  V30 23 F -4.6158 1.826 0.0 0
M  V30 24 C -5.797 0.7991 0.0 0 CFG=2
M  V30 25 C -6.3396 -1.7531 0.0 0
M  V30 26 C -6.8051 -0.3203 0.0 0
M  V30 27 C -6.2626 2.2319 0.0 0
M  V30 28 C -5.0553 2.185 0.0 0
M  V30 29 C -8.2787 -0.0071 0.0 0
M  V30 30 C -7.7362 2.5451 0.0 0
M  V30 31 C -8.7443 1.4256 0.0 0
M  V30 32 O -10.2179 1.7388 0.0 0
M  V30 END ATOM
M  V30 BEGIN BOND
M  V30 1 1 1 2
M  V30 2 1 2 3
M  V30 3 2 3 4
M  V30 4 1 5 3
M  V30 5 1 5 6 CFG=3
M  V30 6 1 7 5
M  V30 7 1 8 5
M  V30 8 1 6 9
M  V30 9 1 10 7
M  V30 10 1 7 11
M  V30 11 1 7 12 CFG=1
M  V30 12 1 8 13
M  V30 13 1 8 14 CFG=1
M  V30 14 2 9 15
M  V30 15 1 9 16
M  V30 16 1 17 10
M  V30 17 1 18 11
M  V30 18 1 16 19
M  V30 19 1 20 17
M  V30 20 1 17 21 CFG=3
M  V30 21 1 18 22 CFG=1
M  V30 22 1 20 23 CFG=3
M  V30 23 1 24 20
M  V30 24 1 21 25
M  V30 25 1 24 26
M  V30 26 1 24 27
M  V30 27 1 24 28 CFG=1
M  V30 28 2 26 29
M  V30 29 2 27 30
M  V30 30 1 29 31
M  V30 31 2 31 32
M  V30 32 1 10 13 CFG=1
M  V30 33 1 18 20
M  V30 34 1 25 26
M  V30 35 1 30 31
M  V30 END BOND
M  V30 BEGIN COLLECTION
M  V30 MDLV30/STERAC1 ATOMS=(8 5 7 8 10 17 18 20 24)
M  V30 END COLLECTION
M  V30 END CTAB
M  END
>  <Molecule Name>


>  <status>
-

>  <cas>
25122-46-7

>  <name>
CLOBETASOL PROPIONATE

>  <ID>
585

>  <Smiles>
CCC(O[C@]([C@@H](C)C1)([C@@](C)(C[C@@H]2O)[C@@H]1[C@H](CCC([C@]1(C)C=C3)=CC3=O)[C@@]12F)C(CCl)=O)=O

$$$$

Actelion Java MolfileCreator 2.0

  0  0  0  0  0  0              0 V3000
M  V30 BEGIN CTAB
M  V30 COUNTS 14 14 0 0 0
M  V30 BEGIN ATOM
M  V30 1 N 3.8971 0.0 0.0 0
M  V30 2 C 2.598 -0.75 0.0 0 CFG=2
M  V30 3 C 5.1961 -0.75 0.0 0
M  V30 4 C 3.8971 1.5 0.0 0
M  V30 5 C 1.299 0.0 0.0 0
M  V30 6 C 2.598 -2.25 0.0 0
M  V30 7 C 6.4951 0.0 0.0 0
M  V30 8 C 0.0 -0.75 0.0 0
M  V30 9 C 7.7942 0.75 0.0 0
M  V30 10 C -1.299 0.0 0.0 0
M  V30 11 C 0.0 -2.2499 0.0 0
M  V30 12 C -2.598 -0.7499 0.0 0
M  V30 13 C -1.299 -2.9999 0.0 0
M  V30 14 C -2.598 -2.2499 0.0 0
M  V30 END ATOM
M  V30 BEGIN BOND
M  V30 1 1 2 1 CFG=1
M  V30 2 1 1 3
M  V30 3 1 1 4
M  V30 4 1 2 5
M  V30 5 1 2 6
M  V30 6 1 3 7
M  V30 7 1 5 8
M  V30 8 3 7 9
M  V30 9 2 8 10
M  V30 10 1 8 11
M  V30 11 1 10 12
M  V30 12 2 11 13
M  V30 13 2 12 14
M  V30 14 1 13 14
M  V30 END BOND
M  V30 BEGIN COLLECTION
M  V30 MDLV30/STERAC1 ATOMS=(1 2)
M  V30 END COLLECTION
M  V30 END CTAB
M  END
>  <Molecule Name>


>  <status>
-

>  <cas>
14611-51-9

>  <name>
SELEGILINE

>  <ID>
586

>  <Smiles>
CC(Cc1ccccc1)N(C)CC#C

$$$$

Actelion Java MolfileCreator 2.0

  0  0  0  0  0  0              0 V3000
M  V30 BEGIN CTAB
M  V30 COUNTS 30 32 0 0 0
M  V30 BEGIN ATOM
M  V30 1 O 9.4343 6.2454 0.0 0
M  V30 2 C 10.549 5.2417 0.0 0
M  V30 3 N 10.3923 3.7499 0.0 0
M  V30 4 N 12.0163 5.5536 0.0 0
M  V30 5 N 11.7626 3.1398 0.0 0
M  V30 6 C 9.0932 3.0 0.0 0
M  V30 7 N 12.7663 4.2546 0.0 0
M  V30 8 C 12.6264 6.9239 0.0 0
M  V30 9 C 7.7942 3.75 0.0 0
M  V30 10 C 11.7447 8.1374 0.0 0
M  V30 11 N 6.4951 3.0 0.0 0
M  V30 12 C 5.1961 3.75 0.0 0
M  V30 13 C 6.4951 1.5 0.0 0
M  V30 14 C 3.8971 3.0 0.0 0
M  V30 15 C 5.1961 0.75 0.0 0
M  V30 16 C 3.8971 1.5 0.0 0
M  V30 17 N 3.8971 0.0 0.0 0
M  V30 18 C 2.598 0.75 0.0 0
M  V30 19 C 5.1961 -0.75 0.0 0
M  V30 20 C 2.598 -0.75 0.0 0
M  V30 21 O 1.299 1.4999 0.0 0
M  V30 22 C 5.1961 -2.25 0.0 0
M  V30 23 C 6.4951 0.0 0.0 0
M  V30 24 O 2.598 -2.25 0.0 0
M  V30 25 C 1.299 0.0 0.0 0
M  V30 26 C 0.0 0.7499 0.0 0
M  V30 27 C 6.4951 -3.0 0.0 0
M  V30 28 C 7.7942 -0.75 0.0 0
M  V30 29 C 0.0 -0.75 0.0 0
M  V30 30 C 7.7942 -2.25 0.0 0
M  V30 END ATOM
M  V30 BEGIN BOND
M  V30 1 2 1 2
M  V30 2 1 2 3
M  V30 3 1 2 4
M  V30 4 1 3 5
M  V30 5 1 3 6
M  V30 6 1 4 7
M  V30 7 1 4 8
M  V30 8 1 6 9
M  V30 9 1 8 10
M  V30 10 1 9 11
M  V30 11 1 11 12
M  V30 12 1 11 13
M  V30 13 1 12 14
M  V30 14 1 13 15
M  V30 15 1 14 16
M  V30 16 1 16 17
M  V30 17 1 16 18
M  V30 18 1 17 19
M  V30 19 1 17 20
M  V30 20 1 18 21
M  V30 21 2 19 22
M  V30 22 1 19 23
M  V30 23 2 20 24
M  V30 24 1 20 25
M  V30 25 1 21 26
M  V30 26 1 22 27
M  V30 27 2 23 28
M  V30 28 1 25 29
M  V30 29 2 27 30
M  V30 30 2 5 7
M  V30 31 1 15 16
M  V30 32 1 28 30
M  V30 END BOND
M  V30 END CTAB
M  END
>  <Molecule Name>


>  <status>
-

>  <cas>
71195-58-9

>  <name>
ALFENTANIL

>  <ID>
587

>  <Smiles>
CCC(N(C1(COC)CCN(CCN2N=NN(CC)C2=O)CC1)c1ccccc1)=O

$$$$

Actelion Java MolfileCreator 2.0

  0  0  0  0  0  0              0 V3000
M  V30 BEGIN CTAB
M  V30 COUNTS 22 24 0 0 0
M  V30 BEGIN ATOM
M  V30 1 N 5.1961 -0.75 0.0 0
M  V30 2 C 6.4951 0.0 0.0 0
M  V30 3 C 3.8971 0.0 0.0 0
M  V30 4 C 5.1961 -2.25 0.0 0
M  V30 5 C 7.7942 -0.75 0.0 0
M  V30 6 C 2.598 -0.75 0.0 0
M  V30 7 C 7.7942 -2.25 0.0 0
M  V30 8 C 9.0932 0.0 0.0 0
M  V30 9 C 1.299 0.0 0.0 0
M  V30 10 C 9.0932 -3.0 0.0 0
M  V30 11 C 6.4951 -3.0 0.0 0
M  V30 12 C 10.3923 -0.75 0.0 0
M  V30 13 C 0.0 -0.75 0.0 0
M  V30 14 C 10.3923 -2.25 0.0 0
M  V30 15 C 9.0932 -4.5 0.0 0
M  V30 16 C 6.4951 -4.5 0.0 0
M  V30 17 C -1.299 0.0 0.0 0
M  V30 18 C 0.0 -2.2499 0.0 0
M  V30 19 C 7.7942 -5.25 0.0 0
M  V30 20 C -2.598 -0.7499 0.0 0
M  V30 21 C -1.299 -2.9999 0.0 0
M  V30 22 C -2.598 -2.2499 0.0 0
M  V30 END ATOM
M  V30 BEGIN BOND
M  V30 1 1 1 2
M  V30 2 1 1 3
M  V30 3 1 1 4
M  V30 4 1 2 5
M  V30 5 1 3 6
M  V30 6 1 5 7
M  V30 7 2 5 8
M  V30 8 2 6 9
M  V30 9 1 7 10
M  V30 10 2 7 11
M  V30 11 1 8 12
M  V30 12 1 9 13
M  V30 13 1 10 14
M  V30 14 2 10 15
M  V30 15 1 11 16
M  V30 16 2 13 17
M  V30 17 1 13 18
M  V30 18 1 15 19
M  V30 19 1 17 20
M  V30 20 2 18 21
M  V30 21 2 20 22
M  V30 22 2 12 14
M  V30 23 2 16 19
M  V30 24 1 21 22
M  V30 END BOND
M  V30 END CTAB
M  END
>  <Molecule Name>


>  <status>
-

>  <cas>
65472-88-0

>  <name>
NAFTIFINE

>  <ID>
588

>  <Smiles>
CN(C/C=C/c1ccccc1)Cc1cccc2ccccc12

$$$$
_c001
Actelion Java MolfileCreator 2.0

  0  0  0  0  0  0              0 V3000
M  V30 BEGIN CTAB
M  V30 COUNTS 23 22 0 0 0
M  V30 BEGIN ATOM
M  V30 1 O 22.0836 1.5 0.0 0
M  V30 2 C 22.0836 0.0 0.0 0
M  V30 3 O 23.3826 -0.75 0.0 0
M  V30 4 C 20.7846 -0.75 0.0 0
M  V30 5 C 24.6817 0.0 0.0 0
M  V30 6 C 19.4855 0.0 0.0 0
M  V30 7 C 25.9807 -0.75 0.0 0
M  V30 8 C 18.1865 -0.75 0.0 0
M  V30 9 N 27.2798 0.0 0.0 0
M  V30 10 C 16.8874 0.0 0.0 0
M  V30 11 C 15.5884 -0.75 0.0 0
M  V30 12 C 14.2894 0.0 0.0 0
M  V30 13 C 12.9903 -0.75 0.0 0
M  V30 14 C 11.6913 0.0 0.0 0
M  V30 15 C 10.3923 -0.75 0.0 0
M  V30 16 C 10.3923 -2.2499 0.0 0
M  V30 17 C 9.0932 -3.0 0.0 0
M  V30 18 C 9.0932 -4.5 0.0 0
M  V30 19 C 7.7942 -5.25 0.0 0
M  V30 20 C 7.7942 -6.75 0.0 0
M  V30 21 C 6.4951 -7.5 0.0 0
M  V30 22 C 6.4951 -9.0 0.0 0
M  V30 23 C 5.1961 -9.75 0.0 0
M  V30 END ATOM
M  V30 BEGIN BOND
M  V30 1 2 1 2
M  V30 2 1 2 3
M  V30 3 1 2 4
M  V30 4 1 3 5
M  V30 5 1 4 6
M  V30 6 1 5 7
M  V30 7 1 6 8
M  V30 8 1 7 9
M  V30 9 1 8 10
M  V30 10 1 10 11
M  V30 11 1 11 12
M  V30 12 1 12 13
M  V30 13 1 13 14
M  V30 14 2 14 15
M  V30 15 1 15 16
M  V30 16 1 16 17
M  V30 17 1 17 18
M  V30 18 1 18 19
M  V30 19 1 19 20
M  V30 20 1 20 21
M  V30 21 1 21 22
M  V30 22 1 22 23
M  V30 END BOND
M  V30 END CTAB
M  END
>  <Molecule Name>
_c001

>  <status>
-

>  <cas>
3282-75-5

>  <name>
ETHANOLAMINE OLEATE

>  <ID>
589

>  <Smiles>
CCCCCCCC/C=C\CCCCCCCC(OCCN)=O

$$$$

Actelion Java MolfileCreator 2.0

  0  0  0  0  0  0              0 V3000
M  V30 BEGIN CTAB
M  V30 COUNTS 26 26 0 0 0
M  V30 BEGIN ATOM
M  V30 1 O 7.7942 1.0 0.0 0
M  V30 2 C 7.7942 0.0 0.0 0
M  V30 3 O 8.6602 -0.5 0.0 0
M  V30 4 C 6.9282 -0.5 0.0 0
M  V30 5 C 9.5262 0.0 0.0 0
M  V30 6 C 6.0621 0.0 0.0 0
M  V30 7 C 10.3923 -0.5 0.0 0
M  V30 8 C 5.1961 -0.5 0.0 0
M  V30 9 C 6.0621 0.9999 0.0 0
M  V30 10 C 4.3301 0.0 0.0 0
M  V30 11 C 3.4641 -0.5 0.0 0
M  V30 12 C 2.598 0.0 0.0 0
M  V30 13 C 1.732 -0.5 0.0 0
M  V30 14 C 2.598 1.0 0.0 0
M  V30 15 C 0.866 0.0 0.0 0
M  V30 16 C 0.0 -0.5 0.0 0
M  V30 17 C -0.866 0.0 0.0 0
M  V30 18 C 0.0 -1.4999 0.0 0
M  V30 19 C -1.732 -0.4999 0.0 0
M  V30 20 C -0.866 1.0 0.0 0
M  V30 21 C -0.866 -1.9999 0.0 0
M  V30 22 C 0.866 -2.0 0.0 0
M  V30 23 C -1.732 -1.4999 0.0 0
M  V30 24 C -2.598 0.0 0.0 0
M  V30 25 O -2.598 -1.9999 0.0 0
M  V30 26 C -2.598 -2.9999 0.0 0
M  V30 END ATOM
M  V30 BEGIN BOND
M  V30 1 2 1 2
M  V30 2 1 2 3
M  V30 3 1 2 4
M  V30 4 1 3 5
M  V30 5 2 4 6
M  V30 6 1 5 7
M  V30 7 1 6 8
M  V30 8 1 6 9
M  V30 9 2 8 10
M  V30 10 1 10 11
M  V30 11 2 11 12
M  V30 12 1 12 13
M  V30 13 1 12 14
M  V30 14 2 13 15
M  V30 15 1 15 16
M  V30 16 2 16 17
M  V30 17 1 16 18
M  V30 18 1 17 19
M  V30 19 1 17 20
M  V30 20 2 18 21
M  V30 21 1 18 22
M  V30 22 2 19 23
M  V30 23 1 19 24
M  V30 24 1 23 25
M  V30 25 1 25 26
M  V30 26 1 21 23
M  V30 END BOND
M  V30 END CTAB
M  END
>  <Molecule Name>


>  <status>
DISCONTINUED

>  <cas>
54350-48-0

>  <name>
ETRETINATE

>  <ID>
590

>  <Smiles>
CCOC(/C=C(\C)/C=C/C=C(\C)/C=C/c(c(C)c1)c(C)c(C)c1OC)=O

$$$$

Actelion Java MolfileCreator 2.0

  0  0  0  0  0  0              0 V3000
M  V30 BEGIN CTAB
M  V30 COUNTS 23 25 0 0 0
M  V30 BEGIN ATOM
M  V30 1 F 5.1961 1.4999 0.0 0
M  V30 2 C 4.3301 0.9999 0.0 0
M  V30 3 C 3.4641 1.4999 0.0 0
M  V30 4 C 4.3301 0.0 0.0 0
M  V30 5 N 3.4641 2.5 0.0 0
M  V30 6 C 2.598 0.9999 0.0 0
M  V30 7 C 3.4641 -0.5 0.0 0
M  V30 8 C 4.3301 2.9999 0.0 0
M  V30 9 C 2.598 3.0 0.0 0
M  V30 10 C 2.598 0.0 0.0 0
M  V30 11 C 3.4641 -1.4999 0.0 0
M  V30 12 C 4.3301 3.9999 0.0 0
M  V30 13 C 2.598 4.0 0.0 0
M  V30 14 N 1.732 -0.5 0.0 0
M  V30 15 O 4.3301 -1.9999 0.0 0
M  V30 16 C 2.598 -2.0 0.0 0
M  V30 17 N 3.4641 4.5 0.0 0
M  V30 18 C 1.732 -1.5 0.0 0
M  V30 19 C 0.866 0.0 0.0 0
M  V30 20 C 2.598 -3.0 0.0 0
M  V30 21 C 0.0 -0.5 0.0 0
M  V30 22 O 1.732 -3.5 0.0 0
M  V30 23 O 3.4641 -3.5 0.0 0 CHG=-1
M  V30 END ATOM
M  V30 BEGIN BOND
M  V30 1 1 1 2
M  V30 2 2 2 3
M  V30 3 1 2 4
M  V30 4 1 3 5
M  V30 5 1 3 6
M  V30 6 2 4 7
M  V30 7 1 5 8
M  V30 8 1 5 9
M  V30 9 2 6 10
M  V30 10 1 7 11
M  V30 11 1 8 12
M  V30 12 1 9 13
M  V30 13 1 10 14
M  V30 14 2 11 15
M  V30 15 1 11 16
M  V30 16 1 12 17
M  V30 17 1 14 18
M  V30 18 1 14 19
M  V30 19 1 16 20
M  V30 20 1 19 21
M  V30 21 2 20 22
M  V30 22 1 20 23
M  V30 23 1 7 10
M  V30 24 1 13 17
M  V30 25 2 16 18
M  V30 END BOND
M  V30 END CTAB
M  END
>  <Molecule Name>


>  <status>
DISCONTINUED

>  <cas>
70458-96-7

>  <name>
NORFLOXACIN

>  <ID>
591

>  <Smiles>
CCN(C=C(C([O-])=O)C(c1c2)=O)c1cc(N1CCNCC1)c2F

$$$$

Actelion Java MolfileCreator 2.0

  0  0  0  0  0  0              0 V3000
M  V30 BEGIN CTAB
M  V30 COUNTS 22 25 0 0 0
M  V30 BEGIN ATOM
M  V30 1 S 1.732 -0.5 0.0 0
M  V30 2 C 0.866 0.0 0.0 0
M  V30 3 C 2.598 0.0 0.0 0
M  V30 4 C 0.0 -0.5 0.0 0 CFG=2
M  V30 5 C -0.866 0.0 0.0 0
M  V30 6 C 0.0 -1.4999 0.0 0
M  V30 7 N -1.732 -0.4999 0.0 0
M  V30 8 C -0.866 -1.9999 0.0 0 CFG=2
M  V30 9 C -1.732 -1.4999 0.0 0 CFG=2
M  V30 10 C -2.598 0.0 0.0 0
M  V30 11 C -0.866 -2.9999 0.0 0
M  V30 12 C -2.598 -1.9999 0.0 0
M  V30 13 C -2.598 1.0 0.0 0
M  V30 14 C -1.732 -3.4999 0.0 0
M  V30 15 C -0.0597 -3.6445 0.0 0
M  V30 16 C -2.598 -2.9999 0.0 0
M  V30 17 C -3.4641 1.5 0.0 0
M  V30 18 C -1.9399 -4.4781 0.0 0
M  V30 19 C -0.1643 -4.639 0.0 0
M  V30 20 C -3.3412 -3.6691 0.0 0
M  V30 21 N -2.9344 -4.5826 0.0 0
M  V30 22 C -1.0778 -5.0457 0.0 0
M  V30 END ATOM
M  V30 BEGIN BOND
M  V30 1 1 1 2
M  V30 2 1 1 3
M  V30 3 1 4 2 CFG=1
M  V30 4 1 4 5
M  V30 5 1 4 6
M  V30 6 1 5 7
M  V30 7 1 8 6 CFG=1
M  V30 8 1 9 7 CFG=3
M  V30 9 1 7 10
M  V30 10 1 8 11
M  V30 11 1 9 12
M  V30 12 1 10 13
M  V30 13 2 11 14
M  V30 14 1 11 15
M  V30 15 1 12 16
M  V30 16 1 13 17
M  V30 17 1 14 18
M  V30 18 2 15 19
M  V30 19 2 16 20
M  V30 20 1 18 21
M  V30 21 2 18 22
M  V30 22 1 8 9
M  V30 23 1 14 16
M  V30 24 1 19 22
M  V30 25 1 20 21
M  V30 END BOND
M  V30 BEGIN COLLECTION
M  V30 MDLV30/STERAC1 ATOMS=(3 4 8 9)
M  V30 END COLLECTION
M  V30 END CTAB
M  END
>  <Molecule Name>


>  <status>
DISCONTINUED

>  <cas>
66104-22-1

>  <name>
PERGOLIDE

>  <ID>
592

>  <Smiles>
CCCN(C[C@@H](CSC)C1)[C@@H](Cc2c[nH]3)[C@@H]1c1c2c3ccc1

$$$$

Actelion Java MolfileCreator 2.0

  0  0  0  0  0  0              0 V3000
M  V30 BEGIN CTAB
M  V30 COUNTS 21 21 0 0 0
M  V30 BEGIN ATOM
M  V30 1 O 10.3923 2.4999 0.0 0
M  V30 2 C 10.3923 1.4999 0.0 0
M  V30 3 O 11.2583 0.9999 0.0 0
M  V30 4 C 9.5262 0.9999 0.0 0
M  V30 5 C 12.1243 1.4999 0.0 0
M  V30 6 C 8.6602 1.4999 0.0 0
M  V30 7 C 7.7942 0.9999 0.0 0
M  V30 8 C 6.9282 1.4999 0.0 0
M  V30 9 C 7.7942 0.0 0.0 0
M  V30 10 C 6.0621 0.9999 0.0 0
M  V30 11 C 6.9282 -0.5 0.0 0
M  V30 12 C 6.0621 0.0 0.0 0
M  V30 13 O 5.1961 -0.5 0.0 0
M  V30 14 C 4.3301 0.0 0.0 0
M  V30 15 C 3.4641 -0.5 0.0 0 CFG=1
M  V30 16 O 3.4641 -1.5 0.0 0
M  V30 17 C 2.598 0.0 0.0 0
M  V30 18 N 1.732 -0.5 0.0 0
M  V30 19 C 0.866 0.0 0.0 0
M  V30 20 C 0.866 1.0 0.0 0
M  V30 21 C 0.0 -0.5 0.0 0
M  V30 END ATOM
M  V30 BEGIN BOND
M  V30 1 2 1 2
M  V30 2 1 2 3
M  V30 3 1 2 4
M  V30 4 1 3 5
M  V30 5 1 4 6
M  V30 6 1 6 7
M  V30 7 2 7 8
M  V30 8 1 7 9
M  V30 9 1 8 10
M  V30 10 2 9 11
M  V30 11 2 10 12
M  V30 12 1 12 13
M  V30 13 1 13 14
M  V30 14 1 15 14
M  V30 15 1 15 16 CFG=1
M  V30 16 1 15 17
M  V30 17 1 17 18
M  V30 18 1 18 19
M  V30 19 1 19 20
M  V30 20 1 19 21
M  V30 21 1 11 12
M  V30 END BOND
M  V30 BEGIN COLLECTION
M  V30 MDLV30/STERAC1 ATOMS=(1 15)
M  V30 END COLLECTION
M  V30 END CTAB
M  END
>  <Molecule Name>


>  <status>
-

>  <cas>
81147-92-4

>  <name>
ESMOLOL

>  <ID>
593

>  <Smiles>
CC(C)NCC(COc1ccc(CCC(OC)=O)cc1)O

$$$$

Actelion Java MolfileCreator 2.0

  0  0  0  0  0  0              0 V3000
M  V30 BEGIN CTAB
M  V30 COUNTS 18 19 0 0 0
M  V30 BEGIN ATOM
M  V30 1 S 6.9757 1.4067 0.0 0
M  V30 2 C 6.0621 1.0 0.0 0
M  V30 3 C 7.6448 0.6635 0.0 0
M  V30 4 C 5.1961 1.5 0.0 0
M  V30 5 C 6.1667 0.0054 0.0 0
M  V30 6 C 7.1448 -0.2024 0.0 0
M  V30 7 O 5.1961 2.5 0.0 0
M  V30 8 C 4.3301 1.0 0.0 0
M  V30 9 C 3.4641 1.5 0.0 0
M  V30 10 C 4.3301 0.0 0.0 0
M  V30 11 C 2.598 0.9999 0.0 0
M  V30 12 C 3.4641 -0.4999 0.0 0
M  V30 13 C 2.598 0.0 0.0 0
M  V30 14 C 1.732 -0.5 0.0 0 CFG=2
M  V30 15 C 0.866 0.0 0.0 0
M  V30 16 C 1.732 -1.5 0.0 0
M  V30 17 O 0.866 1.0 0.0 0
M  V30 18 O 0.0 -0.5 0.0 0 CHG=-1
M  V30 END ATOM
M  V30 BEGIN BOND
M  V30 1 1 1 2
M  V30 2 1 1 3
M  V30 3 1 2 4
M  V30 4 2 2 5
M  V30 5 2 3 6
M  V30 6 2 4 7
M  V30 7 1 4 8
M  V30 8 2 8 9
M  V30 9 1 8 10
M  V30 10 1 9 11
M  V30 11 2 10 12
M  V30 12 2 11 13
M  V30 13 1 14 13
M  V30 14 1 14 15
M  V30 15 1 14 16 CFG=1
M  V30 16 2 15 17
M  V30 17 1 15 18
M  V30 18 1 5 6
M  V30 19 1 12 13
M  V30 END BOND
M  V30 BEGIN COLLECTION
M  V30 MDLV30/STERAC1 ATOMS=(1 14)
M  V30 END COLLECTION
M  V30 END CTAB
M  END
>  <Molecule Name>


>  <status>
DISCONTINUED

>  <cas>
40828-46-4

>  <name>
SUPROFEN

>  <ID>
594

>  <Smiles>
CC(C([O-])=O)c(cc1)ccc1C(c1cccs1)=O

$$$$

Actelion Java MolfileCreator 2.0

  0  0  0  0  0  0              0 V3000
M  V30 BEGIN CTAB
M  V30 COUNTS 18 18 0 0 0
M  V30 BEGIN ATOM
M  V30 1 N 4.3301 2.0 0.0 0
M  V30 2 C 3.4641 1.5 0.0 0
M  V30 3 N 2.598 1.0 0.0 0
M  V30 4 C 2.598 0.0 0.0 0
M  V30 5 N 3.4641 -0.5 0.0 0
M  V30 6 N 1.732 -0.5 0.0 0
M  V30 7 C 4.3301 0.0 0.0 0
M  V30 8 C 1.732 -1.5 0.0 0 CFG=2
M  V30 9 C 5.1961 -0.4999 0.0 0
M  V30 10 C 4.3301 0.9999 0.0 0
M  V30 11 C 0.866 -2.0 0.0 0
M  V30 12 C 2.598 -2.0 0.0 0
M  V30 13 C 6.0621 0.0 0.0 0
M  V30 14 C 5.1961 1.4999 0.0 0
M  V30 15 C 1.366 -2.866 0.0 0
M  V30 16 C 0.0 -2.5 0.0 0
M  V30 17 C 0.366 -1.1339 0.0 0
M  V30 18 N 6.0621 1.0 0.0 0
M  V30 END ATOM
M  V30 BEGIN BOND
M  V30 1 3 1 2
M  V30 2 1 2 3
M  V30 3 2 3 4
M  V30 4 1 4 5
M  V30 5 1 4 6
M  V30 6 1 5 7
M  V30 7 1 8 6 CFG=1
M  V30 8 2 7 9
M  V30 9 1 7 10
M  V30 10 1 8 11
M  V30 11 1 8 12
M  V30 12 1 9 13
M  V30 13 2 10 14
M  V30 14 1 11 15
M  V30 15 1 11 16
M  V30 16 1 11 17
M  V30 17 2 13 18
M  V30 18 1 14 18
M  V30 END BOND
M  V30 BEGIN COLLECTION
M  V30 MDLV30/STERAC1 ATOMS=(1 8)
M  V30 END COLLECTION
M  V30 END CTAB
M  END
>  <Molecule Name>


>  <status>
DISCONTINUED

>  <cas>
60560-33-0

>  <name>
PINACIDIL

>  <ID>
595

>  <Smiles>
CC(C(C)(C)C)N/C(/Nc1ccncc1)=N/C#N

$$$$
_c001
Actelion Java MolfileCreator 2.0

  0  0  0  0  0  0              0 V3000
M  V30 BEGIN CTAB
M  V30 COUNTS 26 26 0 0 0
M  V30 BEGIN ATOM
M  V30 1 O 12.0745 1.3273 0.0 0
M  V30 2 C 11.7626 -0.1398 0.0 0
M  V30 3 C 10.3923 -0.75 0.0 0 CFG=2
M  V30 4 C 12.7663 -1.2546 0.0 0
M  V30 5 C 10.5491 -2.2417 0.0 0 CFG=1
M  V30 6 C 9.0932 0.0 0.0 0
M  V30 7 C 12.0163 -2.5536 0.0 0 CFG=1
M  V30 8 C 9.4343 -3.2454 0.0 0
M  V30 9 C 7.7942 -0.75 0.0 0
M  V30 10 O 12.6264 -3.9239 0.0 0
M  V30 11 C 9.7462 -4.7127 0.0 0
M  V30 12 C 6.4952 0.0 0.0 0
M  V30 13 C 8.6315 -5.7164 0.0 0
M  V30 14 C 5.1961 -0.75 0.0 0
M  V30 15 C 8.9434 -7.1836 0.0 0 CFG=1
M  V30 16 C 3.8971 0.0 0.0 0
M  V30 17 O 9.947 -8.2983 0.0 0
M  V30 18 C 7.8286 -8.1873 0.0 0
M  V30 19 C 10.4106 -6.8717 0.0 0
M  V30 20 C 2.598 -0.75 0.0 0
M  V30 21 C 8.1405 -9.6545 0.0 0
M  V30 22 C 1.299 0.0 0.0 0
M  V30 23 C 7.0258 -10.6582 0.0 0
M  V30 24 O 1.299 1.5 0.0 0
M  V30 25 O 0.0 -0.75 0.0 0 CHG=-1
M  V30 26 C 7.3377 -12.1254 0.0 0
M  V30 END ATOM
M  V30 BEGIN BOND
M  V30 1 2 1 2
M  V30 2 1 3 2
M  V30 3 1 2 4
M  V30 4 1 5 3
M  V30 5 1 3 6 CFG=3
M  V30 6 1 7 4
M  V30 7 1 5 8 CFG=1
M  V30 8 1 6 9
M  V30 9 1 7 10 CFG=3
M  V30 10 2 8 11
M  V30 11 1 9 12
M  V30 12 1 11 13
M  V30 13 1 12 14
M  V30 14 1 15 13
M  V30 15 1 14 16
M  V30 16 1 15 17 CFG=1
M  V30 17 1 15 18
M  V30 18 1 15 19
M  V30 19 1 16 20
M  V30 20 1 18 21
M  V30 21 1 20 22
M  V30 22 1 21 23
M  V30 23 2 22 24
M  V30 24 1 22 25
M  V30 25 1 23 26
M  V30 26 1 5 7
M  V30 END BOND
M  V30 BEGIN COLLECTION
M  V30 MDLV30/STERAC1 ATOMS=(4 3 5 7 15)
M  V30 END COLLECTION
M  V30 END CTAB
M  END
>  <Molecule Name>
_c001

>  <status>
-

>  <cas>
259218-80-9

>  <name>
M MISOPROSTOL

>  <ID>
596

>  <Smiles>
CCCC[C@@](C)(C/C=C/[C@@H]([C@H](CCCCCCC([O-])=O)C(C1)=O)[C@H]1O)O

$$$$

Actelion Java MolfileCreator 2.0

  0  0  0  0  0  0              0 V3000
M  V30 BEGIN CTAB
M  V30 COUNTS 27 29 0 0 0
M  V30 BEGIN ATOM
M  V30 1 O 5.2307 -0.7549 0.0 0
M  V30 2 C 3.923 0.0 0.0 0
M  V30 3 O 2.6153 -0.7549 0.0 0
M  V30 4 C 3.923 1.5099 0.0 0
M  V30 5 C 2.6153 -2.2649 0.0 0
M  V30 6 C 5.2307 2.2649 0.0 0
M  V30 7 C 2.6153 2.2649 0.0 0 CFG=2
M  V30 8 C 3.923 -3.0199 0.0 0
M  V30 9 C 1.3076 -3.0199 0.0 0
M  V30 10 N 5.2307 3.7749 0.0 0
M  V30 11 C 6.5384 1.5099 0.0 0
M  V30 12 C 2.6153 3.7749 0.0 0
M  V30 13 C 1.3076 1.5099 0.0 0
M  V30 14 C 3.923 4.5299 0.0 0
M  V30 15 C 1.3076 4.5299 0.0 0
M  V30 16 C 0.0 2.2649 0.0 0
M  V30 17 C 1.3076 0.0 0.0 0
M  V30 18 C 3.923 6.0399 0.0 0
M  V30 19 O 0.2184 3.7979 0.0 0
M  V30 20 O 1.3076 6.0399 0.0 0
M  V30 21 N -0.4231 3.7304 0.0 0
M  V30 22 C -1.3076 1.5099 0.0 0
M  V30 23 C 0.0 -0.7549 0.0 0
M  V30 24 C 0.0 6.7949 0.0 0
M  V30 25 O -1.8156 3.8997 0.0 0
M  V30 26 N -2.4298 2.5203 0.0 0
M  V30 27 C -1.3076 0.0 0.0 0
M  V30 END ATOM
M  V30 BEGIN BOND
M  V30 1 2 1 2
M  V30 2 1 2 3
M  V30 3 1 2 4
M  V30 4 1 3 5
M  V30 5 2 4 6
M  V30 6 1 7 4
M  V30 7 1 5 8
M  V30 8 1 5 9
M  V30 9 1 6 10
M  V30 10 1 6 11
M  V30 11 1 7 12
M  V30 12 1 7 13 CFG=1
M  V30 13 1 10 14
M  V30 14 1 12 15
M  V30 15 1 13 16
M  V30 16 2 13 17
M  V30 17 1 14 18
M  V30 18 2 15 19
M  V30 19 1 15 20
M  V30 20 2 16 21
M  V30 21 1 16 22
M  V30 22 1 17 23
M  V30 23 1 20 24
M  V30 24 1 21 25
M  V30 25 2 22 26
M  V30 26 1 22 27
M  V30 27 2 12 14
M  V30 28 2 23 27
M  V30 29 1 25 26
M  V30 END BOND
M  V30 BEGIN COLLECTION
M  V30 MDLV30/STERAC1 ATOMS=(1 7)
M  V30 END COLLECTION
M  V30 END CTAB
M  END
>  <Molecule Name>


>  <status>
-

>  <cas>
75695-93-1

>  <name>
ISRADIPINE

>  <ID>
597

>  <Smiles>
CC(C)OC(C(C1c2cccc3nonc23)=C(C)NC(C)=C1C(OC)=O)=O

$$$$

Actelion Java MolfileCreator 2.0

  0  0  0  0  0  0              0 V3000
M  V30 BEGIN CTAB
M  V30 COUNTS 18 18 0 0 0
M  V30 BEGIN ATOM
M  V30 1 N 4.3301 2.0 0.0 0
M  V30 2 C 3.4641 1.5 0.0 0
M  V30 3 N 2.598 1.0 0.0 0
M  V30 4 C 2.598 0.0 0.0 0
M  V30 5 N 3.4641 -0.5 0.0 0
M  V30 6 N 1.732 -0.5 0.0 0
M  V30 7 C 4.3301 0.0 0.0 0
M  V30 8 C 1.732 -1.5 0.0 0 CFG=2
M  V30 9 C 5.1961 -0.4999 0.0 0
M  V30 10 C 4.3301 0.9999 0.0 0
M  V30 11 C 0.866 -2.0 0.0 0
M  V30 12 C 2.598 -2.0 0.0 0
M  V30 13 C 6.0621 0.0 0.0 0
M  V30 14 C 5.1961 1.4999 0.0 0
M  V30 15 C 1.366 -2.866 0.0 0
M  V30 16 C 0.0 -2.5 0.0 0
M  V30 17 C 0.366 -1.1339 0.0 0
M  V30 18 N 6.0621 1.0 0.0 0
M  V30 END ATOM
M  V30 BEGIN BOND
M  V30 1 3 1 2
M  V30 2 1 2 3
M  V30 3 2 3 4
M  V30 4 1 4 5
M  V30 5 1 4 6
M  V30 6 1 5 7
M  V30 7 1 8 6 CFG=1
M  V30 8 2 7 9
M  V30 9 1 7 10
M  V30 10 1 8 11
M  V30 11 1 8 12
M  V30 12 1 9 13
M  V30 13 2 10 14
M  V30 14 1 11 15
M  V30 15 1 11 16
M  V30 16 1 11 17
M  V30 17 2 13 18
M  V30 18 1 14 18
M  V30 END BOND
M  V30 BEGIN COLLECTION
M  V30 MDLV30/STERAC1 ATOMS=(1 8)
M  V30 END COLLECTION
M  V30 END CTAB
M  END
>  <Molecule Name>


>  <status>
DISCONTINUED

>  <cas>
60560-33-0

>  <name>
PINACIDIL

>  <ID>
598

>  <Smiles>
CC(C(C)(C)C)N/C(/Nc1ccncc1)=N/C#N

$$$$

Actelion Java MolfileCreator 2.0

  0  0  0  0  0  0              0 V3000
M  V30 BEGIN CTAB
M  V30 COUNTS 20 20 0 0 0
M  V30 BEGIN ATOM
M  V30 1 S 6.0621 0.0 0.0 0
M  V30 2 O 6.5621 -0.866 0.0 0
M  V30 3 O 5.5621 0.866 0.0 0
M  V30 4 N 5.1961 -0.5 0.0 0
M  V30 5 N 6.9282 0.4999 0.0 0
M  V30 6 C 4.3301 0.0 0.0 0
M  V30 7 N 4.3301 1.0 0.0 0
M  V30 8 C 3.4641 -0.5 0.0 0
M  V30 9 C 2.598 0.0 0.0 0
M  V30 10 S 1.732 -0.5 0.0 0
M  V30 11 C 0.866 0.0 0.0 0
M  V30 12 C 0.0 -0.5 0.0 0
M  V30 13 N -0.9135 -0.0932 0.0 0
M  V30 14 C -0.1045 -1.4945 0.0 0
M  V30 15 C -1.5826 -0.8364 0.0 0
M  V30 16 S -1.0826 -1.7024 0.0 0
M  V30 17 N -2.5771 -0.7318 0.0 0
M  V30 18 C -2.9839 0.1816 0.0 0
M  V30 19 N -2.3961 0.9906 0.0 0
M  V30 20 N -3.9784 0.2861 0.0 0
M  V30 END ATOM
M  V30 BEGIN BOND
M  V30 1 2 1 2
M  V30 2 2 1 3
M  V30 3 1 1 4
M  V30 4 1 1 5
M  V30 5 2 4 6
M  V30 6 1 6 7
M  V30 7 1 6 8
M  V30 8 1 8 9
M  V30 9 1 9 10
M  V30 10 1 10 11
M  V30 11 1 11 12
M  V30 12 1 12 13
M  V30 13 2 12 14
M  V30 14 2 13 15
M  V30 15 1 14 16
M  V30 16 1 15 17
M  V30 17 2 17 18
M  V30 18 1 18 19
M  V30 19 1 18 20
M  V30 20 1 15 16
M  V30 END BOND
M  V30 END CTAB
M  END
>  <Molecule Name>


>  <status>
-

>  <cas>
76824-35-6

>  <name>
FAMOTIDINE

>  <ID>
599

>  <Smiles>
N/C(/CCSCc1csc(N=C(N)N)n1)=N\S(N)(=O)=O

$$$$

Actelion Java MolfileCreator 2.0

  0  0  0  0  0  0              0 V3000
M  V30 BEGIN CTAB
M  V30 COUNTS 12 12 0 0 0
M  V30 BEGIN ATOM
M  V30 1 O 4.3301 0.0 0.0 0
M  V30 2 C 3.4641 -0.5 0.0 0
M  V30 3 O 2.598 0.0 0.0 0
M  V30 4 C 3.4641 -1.4999 0.0 0 CFG=1
M  V30 5 C 1.732 -0.5 0.0 0 CFG=2
M  V30 6 O 4.3301 -1.9999 0.0 0
M  V30 7 C 2.598 -2.0 0.0 0 CFG=1
M  V30 8 C 1.732 -1.5 0.0 0 CFG=1
M  V30 9 C 0.866 0.0 0.0 0
M  V30 10 O 2.598 -3.0 0.0 0
M  V30 11 O 0.866 -1.9999 0.0 0
M  V30 12 O 0.0 -0.5 0.0 0
M  V30 END ATOM
M  V30 BEGIN BOND
M  V30 1 2 1 2
M  V30 2 1 2 3
M  V30 3 1 4 2
M  V30 4 1 5 3
M  V30 5 1 4 6 CFG=1
M  V30 6 1 7 4
M  V30 7 1 8 5
M  V30 8 1 5 9 CFG=3
M  V30 9 1 7 10 CFG=3
M  V30 10 1 8 11 CFG=1
M  V30 11 1 9 12
M  V30 12 1 7 8
M  V30 END BOND
M  V30 BEGIN COLLECTION
M  V30 MDLV30/STERAC1 ATOMS=(4 4 5 7 8)
M  V30 END COLLECTION
M  V30 END CTAB
M  END
>  <Molecule Name>


>  <status>
-

>  <cas>
90-80-2

>  <name>
GLUCONOLACTONE

>  <ID>
600

>  <Smiles>
OC[C@@H]([C@@H]([C@H]([C@@H]1O)O)O)OC1=O

$$$$

Actelion Java MolfileCreator 2.0

  0  0  0  0  0  0              0 V3000
M  V30 BEGIN CTAB
M  V30 COUNTS 35 37 0 0 0
M  V30 BEGIN ATOM
M  V30 1 O 1.732 1.5 0.0 0
M  V30 2 N 2.598 1.0 0.0 0 CHG=1
M  V30 3 O 2.598 0.0 0.0 0 CHG=-1
M  V30 4 C 3.4641 1.5 0.0 0
M  V30 5 C 4.3301 1.0 0.0 0
M  V30 6 C 3.4641 2.5 0.0 0
M  V30 7 C 5.1961 1.5 0.0 0
M  V30 8 C 4.3301 3.0 0.0 0
M  V30 9 C 5.1961 2.5 0.0 0
M  V30 10 C 6.0621 1.0 0.0 0 CFG=2
M  V30 11 C 6.0621 0.0 0.0 0
M  V30 12 C 6.9282 1.4999 0.0 0
M  V30 13 C 6.9282 -0.5 0.0 0
M  V30 14 C 5.1961 -0.5 0.0 0
M  V30 15 C 7.7942 1.0 0.0 0
M  V30 16 C 6.9282 2.4999 0.0 0
M  V30 17 N 7.7942 0.0 0.0 0
M  V30 18 C 6.9282 -1.4999 0.0 0
M  V30 19 O 4.3301 0.0 0.0 0
M  V30 20 O 5.1961 -1.4999 0.0 0
M  V30 21 C 8.6602 1.5 0.0 0
M  V30 22 O 6.0621 3.0 0.0 0
M  V30 23 O 7.7942 3.0 0.0 0
M  V30 24 C 4.3301 -1.9999 0.0 0
M  V30 25 C 7.7942 3.9999 0.0 0
M  V30 26 C 4.3301 -2.9999 0.0 0
M  V30 27 N 3.4641 -3.4999 0.0 0
M  V30 28 C 3.4641 -4.4999 0.0 0
M  V30 29 C 2.598 -2.9999 0.0 0
M  V30 30 C 2.598 -4.9999 0.0 0
M  V30 31 C 2.598 -5.9999 0.0 0
M  V30 32 C 1.732 -4.4999 0.0 0
M  V30 33 C 1.732 -6.4999 0.0 0
M  V30 34 C 0.866 -4.9999 0.0 0
M  V30 35 C 0.866 -5.9999 0.0 0
M  V30 END ATOM
M  V30 BEGIN BOND
M  V30 1 2 1 2
M  V30 2 1 2 3
M  V30 3 1 2 4
M  V30 4 2 4 5
M  V30 5 1 4 6
M  V30 6 1 5 7
M  V30 7 2 6 8
M  V30 8 2 7 9
M  V30 9 1 10 7 CFG=1
M  V30 10 1 10 11
M  V30 11 1 10 12
M  V30 12 2 11 13
M  V30 13 1 11 14
M  V30 14 2 12 15
M  V30 15 1 12 16
M  V30 16 1 13 17
M  V30 17 1 13 18
M  V30 18 2 14 19
M  V30 19 1 14 20
M  V30 20 1 15 21
M  V30 21 2 16 22
M  V30 22 1 16 23
M  V30 23 1 20 24
M  V30 24 1 23 25
M  V30 25 1 24 26
M  V30 26 1 26 27
M  V30 27 1 27 28
M  V30 28 1 27 29
M  V30 29 1 28 30
M  V30 30 2 30 31
M  V30 31 1 30 32
M  V30 32 1 31 33
M  V30 33 2 32 34
M  V30 34 2 33 35
M  V30 35 1 8 9
M  V30 36 1 15 17
M  V30 37 1 34 35
M  V30 END BOND
M  V30 BEGIN COLLECTION
M  V30 MDLV30/STERAC1 ATOMS=(1 10)
M  V30 END COLLECTION
M  V30 END CTAB
M  END
>  <Molecule Name>


>  <status>
-

>  <cas>
55985-32-5

>  <name>
NICARDIPINE

>  <ID>
601

>  <Smiles>
CC(NC(C)=C(C1c2cccc([N+]([O-])=O)c2)C(OCCN(C)Cc2ccccc2)=O)=C1C(OC)=O

$$$$

Actelion Java MolfileCreator 2.0

  0  0  0  0  0  0              0 V3000
M  V30 BEGIN CTAB
M  V30 COUNTS 33 37 0 0 0
M  V30 BEGIN ATOM
M  V30 1 Cl 0.0 4.4999 0.0 0
M  V30 2 C 0.866 3.9999 0.0 0
M  V30 3 C 0.866 2.9999 0.0 0
M  V30 4 C 1.732 4.4999 0.0 0
M  V30 5 C 1.732 2.5 0.0 0
M  V30 6 C 2.598 3.9999 0.0 0
M  V30 7 C 2.598 2.9999 0.0 0
M  V30 8 N 3.4641 2.5 0.0 0
M  V30 9 C 3.4641 1.5 0.0 0
M  V30 10 C 4.3301 3.0 0.0 0
M  V30 11 C 4.3301 1.0 0.0 0
M  V30 12 C 2.598 1.0 0.0 0
M  V30 13 C 5.1961 2.4999 0.0 0
M  V30 14 C 4.3301 3.9999 0.0 0
M  V30 15 N 5.1961 1.5 0.0 0
M  V30 16 C 4.3301 0.0 0.0 0
M  V30 17 C 2.598 0.0 0.0 0
M  V30 18 C 6.0621 3.0 0.0 0
M  V30 19 C 5.1961 4.5 0.0 0
M  V30 20 C 3.4641 -0.4999 0.0 0
M  V30 21 N 1.732 -0.5 0.0 0
M  V30 22 C 6.0621 4.0 0.0 0
M  V30 23 N 3.4641 -1.4999 0.0 0
M  V30 24 C 0.866 0.0 0.0 0
M  V30 25 C 4.3301 -1.9999 0.0 0
M  V30 26 C 0.866 1.0 0.0 0
M  V30 27 C 0.0 -0.5 0.0 0
M  V30 28 C 4.3301 -2.9999 0.0 0
M  V30 29 C 5.1961 -1.4999 0.0 0
M  V30 30 C 5.1961 -3.4999 0.0 0
M  V30 31 C 6.0621 -1.9999 0.0 0
M  V30 32 C 6.0621 -2.9999 0.0 0
M  V30 33 Cl 6.9282 -3.4999 0.0 0
M  V30 END ATOM
M  V30 BEGIN BOND
M  V30 1 1 1 2
M  V30 2 2 2 3
M  V30 3 1 2 4
M  V30 4 1 3 5
M  V30 5 2 4 6
M  V30 6 2 5 7
M  V30 7 1 7 8
M  V30 8 1 8 9
M  V30 9 1 8 10
M  V30 10 1 9 11
M  V30 11 2 9 12
M  V30 12 2 10 13
M  V30 13 1 10 14
M  V30 14 2 11 15
M  V30 15 1 11 16
M  V30 16 1 12 17
M  V30 17 1 13 18
M  V30 18 2 14 19
M  V30 19 2 16 20
M  V30 20 2 17 21
M  V30 21 2 18 22
M  V30 22 1 20 23
M  V30 23 1 21 24
M  V30 24 1 23 25
M  V30 25 1 24 26
M  V30 26 1 24 27
M  V30 27 2 25 28
M  V30 28 1 25 29
M  V30 29 1 28 30
M  V30 30 2 29 31
M  V30 31 2 30 32
M  V30 32 1 32 33
M  V30 33 1 6 7
M  V30 34 1 13 15
M  V30 35 1 17 20
M  V30 36 1 19 22
M  V30 37 1 31 32
M  V30 END BOND
M  V30 END CTAB
M  END
>  <Molecule Name>


>  <status>
DISCONTINUED

>  <cas>
2030-63-9

>  <name>
CLOFAZIMINE

>  <ID>
602

>  <Smiles>
CC(C)/N=C1/C(Nc(cc2)ccc2Cl)=CC2=Nc(cccc3)c3N(c(cc3)ccc3Cl)C2=C1

$$$$

Actelion Java MolfileCreator 2.0

  0  0  0  0  0  0              0 V3000
M  V30 BEGIN CTAB
M  V30 COUNTS 21 21 0 0 0
M  V30 BEGIN ATOM
M  V30 1 S 9.3769 0.3364 0.0 0
M  V30 2 C 8.8769 1.2024 0.0 0
M  V30 3 C 8.7077 -0.4067 0.0 0
M  V30 4 N 7.8987 0.9945 0.0 0
M  V30 5 C 9.2836 2.1159 0.0 0
M  V30 6 C 7.7942 0.0 0.0 0
M  V30 7 N 10.2781 2.2205 0.0 0
M  V30 8 C 6.9282 -0.5 0.0 0
M  V30 9 C 10.8659 1.4114 0.0 0
M  V30 10 C 10.6848 3.134 0.0 0
M  V30 11 S 6.0621 0.0 0.0 0
M  V30 12 C 5.1961 -0.5 0.0 0
M  V30 13 C 4.3301 0.0 0.0 0
M  V30 14 N 3.4641 -0.5 0.0 0
M  V30 15 C 2.598 0.0 0.0 0
M  V30 16 N 2.598 1.0 0.0 0
M  V30 17 C 1.732 -0.5 0.0 0
M  V30 18 C 1.732 1.5 0.0 0
M  V30 19 N 0.866 0.0 0.0 0 CHG=1
M  V30 20 O 0.866 1.0 0.0 0
M  V30 21 O 0.0 -0.5 0.0 0 CHG=-1
M  V30 END ATOM
M  V30 BEGIN BOND
M  V30 1 1 1 2
M  V30 2 1 1 3
M  V30 3 2 2 4
M  V30 4 1 2 5
M  V30 5 2 3 6
M  V30 6 1 5 7
M  V30 7 1 6 8
M  V30 8 1 7 9
M  V30 9 1 7 10
M  V30 10 1 8 11
M  V30 11 1 11 12
M  V30 12 1 12 13
M  V30 13 1 13 14
M  V30 14 1 14 15
M  V30 15 1 15 16
M  V30 16 2 15 17
M  V30 17 1 16 18
M  V30 18 1 17 19
M  V30 19 2 19 20
M  V30 20 1 19 21
M  V30 21 1 4 6
M  V30 END BOND
M  V30 END CTAB
M  END
>  <Molecule Name>


>  <status>
-

>  <cas>
76963-41-2

>  <name>
NIZATIDINE

>  <ID>
603

>  <Smiles>
CN/C(/NCCSCc1csc(CN(C)C)n1)=C\[N+]([O-])=O

$$$$

Actelion Java MolfileCreator 2.0

  0  0  0  0  0  0              0 V3000
M  V30 BEGIN CTAB
M  V30 COUNTS 24 27 0 0 0
M  V30 BEGIN ATOM
M  V30 1 F 3.4641 -4.4999 0.0 0
M  V30 2 C 3.4641 -3.4999 0.0 0
M  V30 3 C 4.3301 -3.0 0.0 0
M  V30 4 C 2.598 -2.9999 0.0 0
M  V30 5 N 5.1961 -3.5 0.0 0
M  V30 6 C 4.3301 -1.9999 0.0 0
M  V30 7 C 2.598 -2.0 0.0 0
M  V30 8 C 5.1961 -4.5 0.0 0
M  V30 9 C 6.0621 -3.0 0.0 0
M  V30 10 C 3.4641 -1.5 0.0 0
M  V30 11 C 1.732 -1.5 0.0 0
M  V30 12 C 6.0621 -5.0 0.0 0
M  V30 13 C 6.9282 -3.5 0.0 0
M  V30 14 N 3.4641 -0.5 0.0 0
M  V30 15 O 0.866 -2.0 0.0 0
M  V30 16 C 1.732 -0.5 0.0 0
M  V30 17 N 6.9282 -4.5 0.0 0
M  V30 18 C 2.598 0.0 0.0 0
M  V30 19 C 4.3301 0.0 0.0 0
M  V30 20 C 0.866 0.0 0.0 0
M  V30 21 C 5.3301 0.0 0.0 0
M  V30 22 C 4.8301 0.866 0.0 0
M  V30 23 O 0.866 1.0 0.0 0
M  V30 24 O 0.0 -0.5 0.0 0 CHG=-1
M  V30 END ATOM
M  V30 BEGIN BOND
M  V30 1 1 1 2
M  V30 2 2 2 3
M  V30 3 1 2 4
M  V30 4 1 3 5
M  V30 5 1 3 6
M  V30 6 2 4 7
M  V30 7 1 5 8
M  V30 8 1 5 9
M  V30 9 2 6 10
M  V30 10 1 7 11
M  V30 11 1 8 12
M  V30 12 1 9 13
M  V30 13 1 10 14
M  V30 14 2 11 15
M  V30 15 1 11 16
M  V30 16 1 12 17
M  V30 17 1 14 18
M  V30 18 1 14 19
M  V30 19 1 16 20
M  V30 20 1 19 21
M  V30 21 1 19 22
M  V30 22 2 20 23
M  V30 23 1 20 24
M  V30 24 1 7 10
M  V30 25 1 13 17
M  V30 26 2 16 18
M  V30 27 1 21 22
M  V30 END BOND
M  V30 END CTAB
M  END
>  <Molecule Name>


>  <status>
-

>  <cas>
85721-33-1

>  <name>
CIPROFLOXACIN

>  <ID>
604

>  <Smiles>
[O-]C(C(C(c1c2)=O)=CN(C3CC3)c1cc(N1CCNCC1)c2F)=O

$$$$

Actelion Java MolfileCreator 2.0

  0  0  0  0  0  0              0 V3000
M  V30 BEGIN CTAB
M  V30 COUNTS 28 31 0 0 0
M  V30 BEGIN ATOM
M  V30 1 Cl 5.0694 -3.4206 0.0 0
M  V30 2 C 3.8793 -3.574 0.0 0 CFG=2
M  V30 3 C 4.5484 -4.3172 0.0 0 CFG=2
M  V30 4 C 4.1883 -2.623 0.0 0 CFG=1
M  V30 5 C 2.9011 -3.7819 0.0 0 CFG=2
M  V30 6 C 4.2394 -5.2682 0.0 0
M  V30 7 C 5.5266 -4.1093 0.0 0
M  V30 8 C 4.8574 -3.1161 0.0 0
M  V30 9 O 5.1664 -2.4151 0.0 0
M  V30 10 C 3.5192 -1.8798 0.0 0
M  V30 11 C 2.232 -3.0388 0.0 0 CFG=1
M  V30 12 C 2.5921 -4.733 0.0 0
M  V30 13 C 4.9085 -6.0114 0.0 0
M  V30 14 C 3.2612 -5.4761 0.0 0
M  V30 15 C 6.1957 -4.8524 0.0 0
M  V30 16 C 2.541 -2.0877 0.0 0 CFG=1
M  V30 17 C 1.232 -3.0388 0.0 0
M  V30 18 C 5.8867 -5.8035 0.0 0
M  V30 19 C 1.732 -1.5 0.0 0 CFG=1
M  V30 20 C 2.9091 -1.1905 0.0 0
M  V30 21 C 0.923 -2.0877 0.0 0 CFG=2
M  V30 22 O 6.5558 -6.5466 0.0 0
M  V30 23 O 2.5429 -1.0055 0.0 0
M  V30 24 C 1.732 -0.5 0.0 0
M  V30 25 C -0.028 -1.7787 0.0 0
M  V30 26 O 2.598 0.0 0.0 0
M  V30 27 C 0.866 0.0 0.0 0
M  V30 28 Cl 0.0 -0.5 0.0 0
M  V30 END ATOM
M  V30 BEGIN BOND
M  V30 1 1 2 1 CFG=1
M  V30 2 1 3 2
M  V30 3 1 4 2
M  V30 4 1 5 2
M  V30 5 1 3 6
M  V30 6 1 3 7
M  V30 7 1 3 8 CFG=3
M  V30 8 1 4 9 CFG=3
M  V30 9 1 4 10
M  V30 10 1 11 5
M  V30 11 1 5 12 CFG=1
M  V30 12 2 6 13
M  V30 13 1 6 14
M  V30 14 2 7 15
M  V30 15 1 16 10
M  V30 16 1 11 17 CFG=3
M  V30 17 1 13 18
M  V30 18 1 19 16
M  V30 19 1 16 20 CFG=3
M  V30 20 1 21 17
M  V30 21 2 18 22
M  V30 22 1 19 23 CFG=1
M  V30 23 1 19 24
M  V30 24 1 21 25 CFG=1
M  V30 25 2 24 26
M  V30 26 1 24 27
M  V30 27 1 27 28
M  V30 28 1 11 16
M  V30 29 1 12 14
M  V30 30 1 15 18
M  V30 31 1 19 21
M  V30 END BOND
M  V30 BEGIN COLLECTION
M  V30 MDLV30/STERAC1 ATOMS=(8 2 3 4 5 11 16 19 21)
M  V30 END COLLECTION
M  V30 END CTAB
M  END
>  <Molecule Name>


>  <status>
-

>  <cas>
105102-22-5

>  <name>
MOMETASONE

>  <ID>
605

>  <Smiles>
C[C@H](C[C@@H]([C@H](CCC([C@]1(C)C=C2)=CC2=O)[C@@]11Cl)[C@]2(C)C[C@@H]1O)[C@@]2(C(CCl)=O)O

$$$$

Actelion Java MolfileCreator 2.0

  0  0  0  0  0  0              0 V3000
M  V30 BEGIN CTAB
M  V30 COUNTS 27 29 0 0 0
M  V30 BEGIN ATOM
M  V30 1 O 5.2307 -0.7549 0.0 0
M  V30 2 C 3.923 0.0 0.0 0
M  V30 3 O 2.6153 -0.7549 0.0 0
M  V30 4 C 3.923 1.5099 0.0 0
M  V30 5 C 2.6153 -2.2649 0.0 0
M  V30 6 C 5.2307 2.2649 0.0 0
M  V30 7 C 2.6153 2.2649 0.0 0 CFG=2
M  V30 8 C 3.923 -3.0199 0.0 0
M  V30 9 C 1.3076 -3.0199 0.0 0
M  V30 10 N 5.2307 3.7749 0.0 0
M  V30 11 C 6.5384 1.5099 0.0 0
M  V30 12 C 2.6153 3.7749 0.0 0
M  V30 13 C 1.3076 1.5099 0.0 0
M  V30 14 C 3.923 4.5299 0.0 0
M  V30 15 C 1.3076 4.5299 0.0 0
M  V30 16 C 0.0 2.2649 0.0 0
M  V30 17 C 1.3076 0.0 0.0 0
M  V30 18 C 3.923 6.0399 0.0 0
M  V30 19 O 0.2184 3.7979 0.0 0
M  V30 20 O 1.3076 6.0399 0.0 0
M  V30 21 N -0.4231 3.7304 0.0 0
M  V30 22 C -1.3076 1.5099 0.0 0
M  V30 23 C 0.0 -0.7549 0.0 0
M  V30 24 C 0.0 6.7949 0.0 0
M  V30 25 O -1.8156 3.8997 0.0 0
M  V30 26 N -2.4298 2.5203 0.0 0
M  V30 27 C -1.3076 0.0 0.0 0
M  V30 END ATOM
M  V30 BEGIN BOND
M  V30 1 2 1 2
M  V30 2 1 2 3
M  V30 3 1 2 4
M  V30 4 1 3 5
M  V30 5 2 4 6
M  V30 6 1 7 4
M  V30 7 1 5 8
M  V30 8 1 5 9
M  V30 9 1 6 10
M  V30 10 1 6 11
M  V30 11 1 7 12
M  V30 12 1 7 13 CFG=1
M  V30 13 1 10 14
M  V30 14 1 12 15
M  V30 15 1 13 16
M  V30 16 2 13 17
M  V30 17 1 14 18
M  V30 18 2 15 19
M  V30 19 1 15 20
M  V30 20 2 16 21
M  V30 21 1 16 22
M  V30 22 1 17 23
M  V30 23 1 20 24
M  V30 24 1 21 25
M  V30 25 2 22 26
M  V30 26 1 22 27
M  V30 27 2 12 14
M  V30 28 2 23 27
M  V30 29 1 25 26
M  V30 END BOND
M  V30 BEGIN COLLECTION
M  V30 MDLV30/STERAC1 ATOMS=(1 7)
M  V30 END COLLECTION
M  V30 END CTAB
M  END
>  <Molecule Name>


>  <status>
-

>  <cas>
75695-93-1

>  <name>
ISRADIPINE

>  <ID>
606

>  <Smiles>
CC(C)OC(C(C1c2cccc3nonc23)=C(C)NC(C)=C1C(OC)=O)=O

$$$$

Actelion Java MolfileCreator 2.0

  0  0  0  0  0  0              0 V3000
M  V30 BEGIN CTAB
M  V30 COUNTS 29 30 0 0 0
M  V30 BEGIN ATOM
M  V30 1 O 4.7654 4.1418 0.0 0
M  V30 2 C 4.5575 3.1636 0.0 0
M  V30 3 O 3.6064 2.8546 0.0 0 CHG=-1
M  V30 4 C 5.3006 2.4945 0.0 0 CFG=1
M  V30 5 N 5.1961 1.4999 0.0 0
M  V30 6 C 6.2788 2.7024 0.0 0
M  V30 7 C 4.3301 0.9999 0.0 0
M  V30 8 C 6.1096 1.0932 0.0 0
M  V30 9 C 6.7788 1.8364 0.0 0
M  V30 10 O 3.4641 1.5 0.0 0
M  V30 11 C 4.3301 0.0 0.0 0 CFG=1
M  V30 12 N 5.1961 -0.5 0.0 0
M  V30 13 C 3.4641 -0.5 0.0 0
M  V30 14 C 5.1961 -1.5 0.0 0 CFG=2
M  V30 15 C 2.598 0.0 0.0 0
M  V30 16 C 4.3301 -2.0 0.0 0
M  V30 17 C 6.0621 -2.0 0.0 0
M  V30 18 C 1.732 -0.5 0.0 0
M  V30 19 O 4.3301 -3.0 0.0 0
M  V30 20 O 3.4641 -1.5 0.0 0 CHG=-1
M  V30 21 C 6.0621 -3.0 0.0 0
M  V30 22 C 0.866 0.0 0.0 0
M  V30 23 C 6.9282 -3.5 0.0 0
M  V30 24 N 0.0 -0.5 0.0 0
M  V30 25 C 7.7942 -3.0 0.0 0
M  V30 26 C 6.9282 -4.5 0.0 0
M  V30 27 C 8.6602 -3.5 0.0 0
M  V30 28 C 7.7942 -5.0 0.0 0
M  V30 29 C 8.6602 -4.5 0.0 0
M  V30 END ATOM
M  V30 BEGIN BOND
M  V30 1 2 1 2
M  V30 2 1 2 3
M  V30 3 1 4 2 CFG=3
M  V30 4 1 4 5
M  V30 5 1 4 6
M  V30 6 1 5 7
M  V30 7 1 5 8
M  V30 8 1 6 9
M  V30 9 2 7 10
M  V30 10 1 11 7
M  V30 11 1 11 12 CFG=1
M  V30 12 1 11 13
M  V30 13 1 14 12 CFG=1
M  V30 14 1 13 15
M  V30 15 1 14 16
M  V30 16 1 14 17
M  V30 17 1 15 18
M  V30 18 2 16 19
M  V30 19 1 16 20
M  V30 20 1 17 21
M  V30 21 1 18 22
M  V30 22 1 21 23
M  V30 23 1 22 24
M  V30 24 2 23 25
M  V30 25 1 23 26
M  V30 26 1 25 27
M  V30 27 2 26 28
M  V30 28 2 27 29
M  V30 29 1 8 9
M  V30 30 1 28 29
M  V30 END BOND
M  V30 BEGIN COLLECTION
M  V30 MDLV30/STERAC1 ATOMS=(3 4 11 14)
M  V30 END COLLECTION
M  V30 END CTAB
M  END
>  <Molecule Name>


>  <status>
-

>  <cas>
76547-98-3

>  <name>
LISINOPRIL

>  <ID>
607

>  <Smiles>
NCCCC[C@@H](C(N(CCC1)[C@@H]1C([O-])=O)=O)N[C@@H](CCc1ccccc1)C([O-])=O

$$$$

Actelion Java MolfileCreator 2.0

  0  0  0  0  0  0              0 V3000
M  V30 BEGIN CTAB
M  V30 COUNTS 35 38 0 0 0
M  V30 BEGIN ATOM
M  V30 1 O -3.541 -1.513 0.0 0
M  V30 2 C -2.0895 -1.1241 0.0 0
M  V30 3 C -1.7006 0.3273 0.0 0
M  V30 4 C -1.0269 -2.1867 0.0 0
M  V30 5 C -0.249 0.7162 0.0 0
M  V30 6 C 0.4245 -1.7978 0.0 0
M  V30 7 C 0.8134 -0.3462 0.0 0 CFG=2
M  V30 8 C 0.1398 2.1677 0.0 0
M  V30 9 C 2.2649 0.0426 0.0 0 CFG=1
M  V30 10 C 1.876 -1.4088 0.0 0
M  V30 11 C 1.5913 2.5567 0.0 0
M  V30 12 C 3.3275 -1.0199 0.0 0 CFG=1
M  V30 13 C 2.6539 1.4941 0.0 0 CFG=1
M  V30 14 O 2.9386 -2.4714 0.0 0
M  V30 15 C 4.7049 -0.61 0.0 0
M  V30 16 C 4.1054 1.883 0.0 0 CFG=1
M  V30 17 C 5.168 0.8204 0.0 0 CFG=1
M  V30 18 C 4.7876 3.2219 0.0 0
M  V30 19 C 6.5069 1.5027 0.0 0 CFG=1
M  V30 20 C 6.2514 -0.3365 0.0 0
M  V30 21 C 6.2718 2.9869 0.0 0
M  V30 22 O 7.8458 0.8204 0.0 0
M  V30 23 C 6.6291 0.1144 0.0 0
M  V30 24 C 9.1061 1.6389 0.0 0
M  V30 25 O 7.8083 -0.7513 0.0 0
M  V30 26 C 5.3538 -0.7932 0.0 0
M  V30 27 O 9.0274 3.1395 0.0 0
M  V30 28 O 10.445 0.9567 0.0 0
M  V30 29 O 5.2055 -2.254 0.0 0
M  V30 30 C 11.7053 1.7751 0.0 0
M  V30 31 C 6.5069 -3.0054 0.0 0
M  V30 32 C 13.0442 1.0929 0.0 0
M  V30 33 O 6.5069 -4.5081 0.0 0
M  V30 34 C 7.8083 -2.254 0.0 0
M  V30 35 C 9.1096 -3.0054 0.0 0
M  V30 END ATOM
M  V30 BEGIN BOND
M  V30 1 2 1 2
M  V30 2 1 2 3
M  V30 3 1 2 4
M  V30 4 2 3 5
M  V30 5 2 4 6
M  V30 6 1 7 5
M  V30 7 1 5 8
M  V30 8 1 9 7
M  V30 9 1 7 10 CFG=3
M  V30 10 1 8 11
M  V30 11 1 9 12 CFG=3
M  V30 12 1 13 9
M  V30 13 1 12 14 CFG=3
M  V30 14 1 12 15
M  V30 15 1 16 13
M  V30 16 1 17 15
M  V30 17 1 16 18 CFG=3
M  V30 18 1 19 17
M  V30 19 1 17 20 CFG=3
M  V30 20 1 18 21
M  V30 21 1 19 22
M  V30 22 1 19 23 CFG=3
M  V30 23 1 22 24
M  V30 24 2 23 25
M  V30 25 1 23 26
M  V30 26 2 24 27
M  V30 27 1 24 28
M  V30 28 1 26 29
M  V30 29 1 28 30
M  V30 30 1 29 31
M  V30 31 1 30 32
M  V30 32 2 31 33
M  V30 33 1 31 34
M  V30 34 1 34 35
M  V30 35 1 6 7
M  V30 36 1 13 11 CFG=1
M  V30 37 1 16 17
M  V30 38 1 19 21
M  V30 END BOND
M  V30 BEGIN COLLECTION
M  V30 MDLV30/STERAC1 ATOMS=(7 7 9 12 13 16 17 19)
M  V30 END COLLECTION
M  V30 END CTAB
M  END
>  <Molecule Name>


>  <status>
-

>  <cas>
73771-04-7

>  <name>
PREDNICARBATE

>  <ID>
608

>  <Smiles>
CCC(OCC([C@@](CC1)([C@@](C)(C[C@@H]2O)[C@@H]1[C@H](CC1)[C@H]2[C@@](C)(C=C2)C1=CC2=O)OC(OCC)=O)=O)=O

$$$$

Actelion Java MolfileCreator 2.0

  0  0  0  0  0  0              0 V3000
M  V30 BEGIN CTAB
M  V30 COUNTS 26 28 0 0 0
M  V30 BEGIN ATOM
M  V30 1 F 5.3971 -4.5 0.0 0
M  V30 2 C 3.8971 -4.5 0.0 0
M  V30 3 F 3.8971 -6.0 0.0 0
M  V30 4 F 2.3971 -4.5 0.0 0
M  V30 5 C 3.8971 -3.0 0.0 0
M  V30 6 N 5.1961 -2.25 0.0 0
M  V30 7 C 2.598 -2.25 0.0 0
M  V30 8 C 5.1961 -0.75 0.0 0
M  V30 9 C 2.598 -0.75 0.0 0
M  V30 10 C 3.8971 0.0 0.0 0
M  V30 11 C 6.4951 0.0 0.0 0
M  V30 12 C 1.299 0.0 0.0 0 CFG=1
M  V30 13 C 3.8971 1.5 0.0 0
M  V30 14 C 6.4951 1.4999 0.0 0
M  V30 15 C 7.7942 -0.75 0.0 0
M  V30 16 O 1.299 1.5 0.0 0
M  V30 17 C 0.0 -0.75 0.0 0 CFG=1
M  V30 18 C 5.1961 2.2499 0.0 0
M  V30 19 F 8.5442 0.549 0.0 0
M  V30 20 F 9.0932 -1.5 0.0 0
M  V30 21 F 7.0442 -2.049 0.0 0
M  V30 22 N -1.299 0.0 0.0 0
M  V30 23 C 0.0 -2.2499 0.0 0
M  V30 24 C -2.598 -0.7499 0.0 0
M  V30 25 C -1.299 -2.9999 0.0 0
M  V30 26 C -2.598 -2.2499 0.0 0
M  V30 END ATOM
M  V30 BEGIN BOND
M  V30 1 1 1 2
M  V30 2 1 2 3
M  V30 3 1 2 4
M  V30 4 1 2 5
M  V30 5 2 5 6
M  V30 6 1 5 7
M  V30 7 1 6 8
M  V30 8 2 7 9
M  V30 9 1 8 10
M  V30 10 2 8 11
M  V30 11 1 12 9
M  V30 12 2 10 13
M  V30 13 1 11 14
M  V30 14 1 11 15
M  V30 15 1 12 16 CFG=3
M  V30 16 1 17 12
M  V30 17 1 13 18
M  V30 18 1 15 19
M  V30 19 1 15 20
M  V30 20 1 15 21
M  V30 21 1 17 22 CFG=3
M  V30 22 1 17 23
M  V30 23 1 22 24
M  V30 24 1 23 25
M  V30 25 1 24 26
M  V30 26 1 9 10
M  V30 27 2 14 18
M  V30 28 1 25 26
M  V30 END BOND
M  V30 BEGIN COLLECTION
M  V30 MDLV30/STERAC1 ATOMS=(2 12 17)
M  V30 END COLLECTION
M  V30 END CTAB
M  END
>  <Molecule Name>


>  <status>
-

>  <cas>
53230-10-7

>  <name>
MEFLOQUINE

>  <ID>
609

>  <Smiles>
O[C@@H]([C@H]1NCCCC1)c1cc(C(F)(F)F)nc2c(C(F)(F)F)cccc12

$$$$

Actelion Java MolfileCreator 2.0

  0  0  0  0  0  0              0 V3000
M  V30 BEGIN CTAB
M  V30 COUNTS 36 40 0 0 0
M  V30 BEGIN ATOM
M  V30 1 Cl 1.7053 0.8895 0.0 0
M  V30 2 C 2.0637 1.8231 0.0 0
M  V30 3 C 3.0514 1.9795 0.0 0
M  V30 4 C 1.4344 2.6002 0.0 0
M  V30 5 C 3.4097 2.9131 0.0 0
M  V30 6 C 3.6807 1.2024 0.0 0 CFG=2
M  V30 7 C 1.7927 3.5338 0.0 0
M  V30 8 C 2.7804 3.6903 0.0 0
M  V30 9 O 2.7026 0.9945 0.0 0
M  V30 10 O 4.1807 0.3364 0.0 0
M  V30 11 C 4.0874 2.1159 0.0 0
M  V30 12 Cl 1.1634 4.311 0.0 0
M  V30 13 C 2.598 0.0 0.0 0 CFG=2
M  V30 14 C 3.5116 -0.4067 0.0 0
M  V30 15 N 5.082 2.2205 0.0 0
M  V30 16 C 1.732 -0.5 0.0 0
M  V30 17 N 5.7511 1.4773 0.0 0
M  V30 18 C 5.582 3.0865 0.0 0
M  V30 19 O 0.866 0.0 0.0 0
M  V30 20 C 6.6646 1.884 0.0 0
M  V30 21 N 6.5601 2.8786 0.0 0
M  V30 22 C 0.0 -0.5 0.0 0
M  V30 23 C -0.866 0.0 0.0 0
M  V30 24 C 0.0 -1.4999 0.0 0
M  V30 25 C -1.732 -0.4999 0.0 0
M  V30 26 C -0.866 -1.9999 0.0 0
M  V30 27 C -1.732 -1.4999 0.0 0
M  V30 28 N -2.598 -1.9999 0.0 0
M  V30 29 C -3.4641 -1.4999 0.0 0
M  V30 30 C -2.598 -2.9999 0.0 0
M  V30 31 C -4.3301 -1.9999 0.0 0
M  V30 32 C -3.4641 -3.4999 0.0 0
M  V30 33 N -4.3301 -2.9999 0.0 0
M  V30 34 C -5.1961 -3.4999 0.0 0
M  V30 35 C -6.0621 -2.9999 0.0 0
M  V30 36 C -5.1961 -4.4999 0.0 0
M  V30 END ATOM
M  V30 BEGIN BOND
M  V30 1 1 1 2
M  V30 2 2 2 3
M  V30 3 1 2 4
M  V30 4 1 3 5
M  V30 5 1 6 3
M  V30 6 2 4 7
M  V30 7 2 5 8
M  V30 8 1 6 9
M  V30 9 1 6 10
M  V30 10 1 6 11 CFG=3
M  V30 11 1 7 12
M  V30 12 1 13 9
M  V30 13 1 10 14
M  V30 14 1 11 15
M  V30 15 1 13 16 CFG=3
M  V30 16 1 15 17
M  V30 17 1 15 18
M  V30 18 1 16 19
M  V30 19 2 17 20
M  V30 20 2 18 21
M  V30 21 1 19 22
M  V30 22 2 22 23
M  V30 23 1 22 24
M  V30 24 1 23 25
M  V30 25 2 24 26
M  V30 26 2 25 27
M  V30 27 1 27 28
M  V30 28 1 28 29
M  V30 29 1 28 30
M  V30 30 1 29 31
M  V30 31 1 30 32
M  V30 32 1 31 33
M  V30 33 1 33 34
M  V30 34 1 34 35
M  V30 35 1 34 36
M  V30 36 1 7 8
M  V30 37 1 13 14
M  V30 38 1 20 21
M  V30 39 1 26 27
M  V30 40 1 32 33
M  V30 END BOND
M  V30 BEGIN COLLECTION
M  V30 MDLV30/STERAC1 ATOMS=(2 6 13)
M  V30 END COLLECTION
M  V30 END CTAB
M  END
>  <Molecule Name>


>  <status>
-

>  <cas>
67915-31-5

>  <name>
TERCONAZOLE

>  <ID>
610

>  <Smiles>
CC(C)N(CC1)CCN1c(cc1)ccc1OC[C@@H]1O[C@@](Cn2ncnc2)(c(ccc(Cl)c2)c2Cl)OC1

$$$$

Actelion Java MolfileCreator 2.0

  0  0  0  0  0  0              0 V3000
M  V30 BEGIN CTAB
M  V30 COUNTS 17 18 0 0 0
M  V30 BEGIN ATOM
M  V30 1 O 3.4641 -0.5 0.0 0
M  V30 2 C 2.598 0.0 0.0 0
M  V30 3 C 1.732 -0.5 0.0 0
M  V30 4 C 2.598 1.0 0.0 0
M  V30 5 C 0.866 0.0 0.0 0
M  V30 6 C 0.0 -0.5 0.0 0
M  V30 7 C -0.866 0.0 0.0 0
M  V30 8 C 0.0 -1.4999 0.0 0
M  V30 9 C -1.732 -0.4999 0.0 0
M  V30 10 C -0.866 -1.9999 0.0 0
M  V30 11 C -1.732 -1.4999 0.0 0
M  V30 12 C -2.598 0.0 0.0 0
M  V30 13 C -2.598 -1.9999 0.0 0
M  V30 14 C -3.4641 -0.4999 0.0 0
M  V30 15 C -3.4641 -1.4999 0.0 0
M  V30 16 O -4.3301 -1.9999 0.0 0
M  V30 17 C -4.3301 -2.9999 0.0 0
M  V30 END ATOM
M  V30 BEGIN BOND
M  V30 1 2 1 2
M  V30 2 1 2 3
M  V30 3 1 2 4
M  V30 4 1 3 5
M  V30 5 1 5 6
M  V30 6 2 6 7
M  V30 7 1 6 8
M  V30 8 1 7 9
M  V30 9 2 8 10
M  V30 10 1 9 11
M  V30 11 2 9 12
M  V30 12 2 11 13
M  V30 13 1 12 14
M  V30 14 1 13 15
M  V30 15 1 15 16
M  V30 16 1 16 17
M  V30 17 1 10 11
M  V30 18 2 14 15
M  V30 END BOND
M  V30 END CTAB
M  END
>  <Molecule Name>


>  <status>
-

>  <cas>
42924-53-8

>  <name>
NABUMETONE

>  <ID>
611

>  <Smiles>
CC(CCc(ccc1c2)cc1ccc2OC)=O

$$$$

Actelion Java MolfileCreator 2.0

  0  0  0  0  0  0              0 V3000
M  V30 BEGIN CTAB
M  V30 COUNTS 28 31 0 0 0
M  V30 BEGIN ATOM
M  V30 1 O 4.3301 0.0 0.0 0
M  V30 2 C 3.4641 -0.5 0.0 0
M  V30 3 O 3.4641 -1.5 0.0 0 CHG=-1
M  V30 4 C 2.598 0.0 0.0 0
M  V30 5 C 1.732 -0.5 0.0 0
M  V30 6 C 0.866 0.0 0.0 0 CFG=2
M  V30 7 C 0.866 1.0 0.0 0 CFG=2
M  V30 8 C 0.0 -0.5 0.0 0
M  V30 9 C 1.675 1.5877 0.0 0 CFG=2
M  V30 10 C 0.057 1.5877 0.0 0
M  V30 11 C 1.366 2.5388 0.0 0 CFG=1
M  V30 12 C 2.6531 1.3798 0.0 0
M  V30 13 C 1.8829 0.6096 0.0 0
M  V30 14 C 0.366 2.5388 0.0 0
M  V30 15 C 2.0351 3.2819 0.0 0 CFG=2
M  V30 16 C 3.3223 2.123 0.0 0
M  V30 17 C 1.7261 4.233 0.0 0 CFG=1
M  V30 18 C 3.0133 3.074 0.0 0 CFG=2
M  V30 19 O 0.7479 4.4409 0.0 0
M  V30 20 C 2.3952 4.9761 0.0 0
M  V30 21 C 3.6824 3.8172 0.0 0 CFG=2
M  V30 22 C 3.3734 4.7682 0.0 0 CFG=1
M  V30 23 C 4.6605 3.6093 0.0 0
M  V30 24 C 3.9914 2.8661 0.0 0
M  V30 25 C 4.0425 5.5114 0.0 0
M  V30 26 C 5.3297 4.3524 0.0 0
M  V30 27 C 5.0206 5.3035 0.0 0 CFG=1
M  V30 28 O 5.6898 6.0466 0.0 0
M  V30 END ATOM
M  V30 BEGIN BOND
M  V30 1 2 1 2
M  V30 2 1 2 3
M  V30 3 1 2 4
M  V30 4 1 4 5
M  V30 5 1 6 5
M  V30 6 1 7 6
M  V30 7 1 6 8 CFG=1
M  V30 8 1 9 7
M  V30 9 1 7 10 CFG=1
M  V30 10 1 11 9
M  V30 11 1 9 12
M  V30 12 1 9 13 CFG=1
M  V30 13 1 10 14
M  V30 14 1 15 11 CFG=3
M  V30 15 1 12 16
M  V30 16 1 17 15
M  V30 17 1 18 15
M  V30 18 1 17 19 CFG=1
M  V30 19 1 17 20
M  V30 20 1 21 18
M  V30 21 1 22 20 CFG=3
M  V30 22 1 21 23
M  V30 23 1 21 24 CFG=1
M  V30 24 1 22 25
M  V30 25 1 23 26
M  V30 26 1 27 25
M  V30 27 1 27 28 CFG=3
M  V30 28 1 11 14 CFG=1
M  V30 29 1 18 16 CFG=1
M  V30 30 1 21 22
M  V30 31 1 26 27
M  V30 END BOND
M  V30 BEGIN COLLECTION
M  V30 MDLV30/STERAC1 ATOMS=(10 6 7 9 11 15 17 18 21 22 27)
M  V30 END COLLECTION
M  V30 END CTAB
M  END
>  <Molecule Name>


>  <status>
-

>  <cas>
128-13-2

>  <name>
URSODIOL

>  <ID>
612

>  <Smiles>
C[C@H](CCC([O-])=O)[C@@H](CC1)[C@@](C)(CC[C@@H]2[C@@](C)(CC[C@H](C3)O)[C@@H]3C3)[C@@H]1[C@@H]2[C@H]3O

$$$$

Actelion Java MolfileCreator 2.0

  0  0  0  0  0  0              0 V3000
M  V30 BEGIN CTAB
M  V30 COUNTS 19 21 0 0 0
M  V30 BEGIN ATOM
M  V30 1 O 1.732 -0.5 0.0 0
M  V30 2 C 0.866 0.0 0.0 0
M  V30 3 C 0.866 1.0 0.0 0
M  V30 4 C 0.0 -0.5 0.0 0
M  V30 5 C 1.732 1.4999 0.0 0
M  V30 6 C 0.0 1.4999 0.0 0
M  V30 7 N -0.9135 -0.0932 0.0 0
M  V30 8 C -0.1045 -1.4945 0.0 0
M  V30 9 C 1.732 2.5 0.0 0
M  V30 10 C 0.0 2.5 0.0 0
M  V30 11 C -1.5826 -0.8364 0.0 0
M  V30 12 C -1.4135 0.7727 0.0 0
M  V30 13 C -1.0826 -1.7024 0.0 0
M  V30 14 C 0.866 3.0 0.0 0
M  V30 15 C -2.4962 -0.4296 0.0 0 CFG=1
M  V30 16 C -2.3916 0.5648 0.0 0
M  V30 17 C -3.3622 -0.9296 0.0 0
M  V30 18 O -4.2282 -0.4296 0.0 0
M  V30 19 O -3.3622 -1.9296 0.0 0 CHG=-1
M  V30 END ATOM
M  V30 BEGIN BOND
M  V30 1 2 1 2
M  V30 2 1 2 3
M  V30 3 1 2 4
M  V30 4 2 3 5
M  V30 5 1 3 6
M  V30 6 1 4 7
M  V30 7 2 4 8
M  V30 8 1 5 9
M  V30 9 2 6 10
M  V30 10 1 7 11
M  V30 11 1 7 12
M  V30 12 1 8 13
M  V30 13 2 9 14
M  V30 14 1 15 11
M  V30 15 1 12 16
M  V30 16 1 15 17 CFG=3
M  V30 17 2 17 18
M  V30 18 1 17 19
M  V30 19 1 10 14
M  V30 20 2 11 13
M  V30 21 1 15 16
M  V30 END BOND
M  V30 BEGIN COLLECTION
M  V30 MDLV30/STERAC1 ATOMS=(1 15)
M  V30 END COLLECTION
M  V30 END CTAB
M  END
>  <Molecule Name>


>  <status>
-

>  <cas>
74103-06-3

>  <name>
KETOROLAC

>  <ID>
613

>  <Smiles>
[O-]C(C1c2ccc(C(c3ccccc3)=O)n2CC1)=O

$$$$

Actelion Java MolfileCreator 2.0

  0  0  0  0  0  0              0 V3000
M  V30 BEGIN CTAB
M  V30 COUNTS 23 25 0 0 0
M  V30 BEGIN ATOM
M  V30 1 F 5.1961 1.4999 0.0 0
M  V30 2 C 4.3301 0.9999 0.0 0
M  V30 3 C 3.4641 1.4999 0.0 0
M  V30 4 C 4.3301 0.0 0.0 0
M  V30 5 N 2.598 0.9999 0.0 0
M  V30 6 N 3.4641 2.5 0.0 0
M  V30 7 C 3.4641 -0.5 0.0 0
M  V30 8 C 2.598 0.0 0.0 0
M  V30 9 C 4.3301 2.9999 0.0 0
M  V30 10 C 2.598 3.0 0.0 0
M  V30 11 C 3.4641 -1.4999 0.0 0
M  V30 12 N 1.732 -0.5 0.0 0
M  V30 13 C 4.3301 3.9999 0.0 0
M  V30 14 C 2.598 4.0 0.0 0
M  V30 15 O 4.3301 -1.9999 0.0 0
M  V30 16 C 2.598 -2.0 0.0 0
M  V30 17 C 1.732 -1.5 0.0 0
M  V30 18 C 0.866 0.0 0.0 0
M  V30 19 N 3.4641 4.5 0.0 0
M  V30 20 C 2.598 -3.0 0.0 0
M  V30 21 C 0.0 -0.5 0.0 0
M  V30 22 O 1.732 -3.5 0.0 0
M  V30 23 O 3.4641 -3.5 0.0 0 CHG=-1
M  V30 END ATOM
M  V30 BEGIN BOND
M  V30 1 1 1 2
M  V30 2 2 2 3
M  V30 3 1 2 4
M  V30 4 1 3 5
M  V30 5 1 3 6
M  V30 6 2 4 7
M  V30 7 2 5 8
M  V30 8 1 6 9
M  V30 9 1 6 10
M  V30 10 1 7 11
M  V30 11 1 8 12
M  V30 12 1 9 13
M  V30 13 1 10 14
M  V30 14 2 11 15
M  V30 15 1 11 16
M  V30 16 1 12 17
M  V30 17 1 12 18
M  V30 18 1 13 19
M  V30 19 1 16 20
M  V30 20 1 18 21
M  V30 21 2 20 22
M  V30 22 1 20 23
M  V30 23 1 7 8
M  V30 24 1 14 19
M  V30 25 2 16 17
M  V30 END BOND
M  V30 END CTAB
M  END
>  <Molecule Name>


>  <status>
DISCONTINUED

>  <cas>
74011-58-8

>  <name>
ENOXACIN

>  <ID>
614

>  <Smiles>
CCN(C=C(C([O-])=O)C(c1c2)=O)c1nc(N1CCNCC1)c2F

$$$$

Actelion Java MolfileCreator 2.0

  0  0  0  0  0  0              0 V3000
M  V30 BEGIN CTAB
M  V30 COUNTS 13 13 0 0 0
M  V30 BEGIN ATOM
M  V30 1 O 2.598 1.0 0.0 0
M  V30 2 C 2.598 0.0 0.0 0
M  V30 3 C 1.732 -0.5 0.0 0
M  V30 4 C 3.4641 -0.4999 0.0 0
M  V30 5 C 1.732 -1.5 0.0 0
M  V30 6 C 0.866 0.0 0.0 0
M  V30 7 C 3.4641 -1.4999 0.0 0
M  V30 8 C 4.3301 0.0 0.0 0
M  V30 9 C 2.598 -1.9999 0.0 0
M  V30 10 C 0.866 1.0 0.0 0
M  V30 11 C 0.0 -0.5 0.0 0
M  V30 12 C 5.1961 -0.4999 0.0 0
M  V30 13 C 4.3301 1.0 0.0 0
M  V30 END ATOM
M  V30 BEGIN BOND
M  V30 1 1 1 2
M  V30 2 2 2 3
M  V30 3 1 2 4
M  V30 4 1 3 5
M  V30 5 1 3 6
M  V30 6 2 4 7
M  V30 7 1 4 8
M  V30 8 2 5 9
M  V30 9 1 6 10
M  V30 10 1 6 11
M  V30 11 1 8 12
M  V30 12 1 8 13
M  V30 13 1 7 9
M  V30 END BOND
M  V30 END CTAB
M  END
>  <Molecule Name>


>  <status>
-

>  <cas>
2078-54-8

>  <name>
PROPOFOL

>  <ID>
615

>  <Smiles>
CC(C)c1cccc(C(C)C)c1O

$$$$

Actelion Java MolfileCreator 2.0

  0  0  0  0  0  0              0 V3000
M  V30 BEGIN CTAB
M  V30 COUNTS 29 31 0 0 0
M  V30 BEGIN ATOM
M  V30 1 O 0.0 -2.25 0.0 0
M  V30 2 C 0.0 -0.75 0.0 0
M  V30 3 O 1.299 0.0 0.0 0
M  V30 4 C -1.299 0.0 0.0 0
M  V30 5 C 1.299 1.5 0.0 0 CFG=1
M  V30 6 C -1.299 1.4999 0.0 0 CFG=1
M  V30 7 C 0.0 2.2499 0.0 0
M  V30 8 C 2.598 2.2499 0.0 0
M  V30 9 O -2.598 2.2499 0.0 0
M  V30 10 C 3.8971 1.4999 0.0 0
M  V30 11 C 5.1961 2.2499 0.0 0 CFG=2
M  V30 12 C 6.4951 1.4999 0.0 0 CFG=2
M  V30 13 C 5.1961 3.7499 0.0 0 CFG=2
M  V30 14 C 7.7942 2.2499 0.0 0
M  V30 15 C 6.4951 0.0 0.0 0 CFG=1
M  V30 16 C 6.4951 4.4999 0.0 0
M  V30 17 C 3.8971 4.5 0.0 0
M  V30 18 C 7.7942 3.7499 0.0 0
M  V30 19 C 9.0932 1.4999 0.0 0
M  V30 20 O 5.1961 -0.75 0.0 0
M  V30 21 C 7.7942 -0.75 0.0 0
M  V30 22 C 9.0932 0.0 0.0 0 CFG=1
M  V30 23 C 5.1961 -2.25 0.0 0
M  V30 24 C 10.3923 -0.75 0.0 0
M  V30 25 O 6.4951 -3.0 0.0 0
M  V30 26 C 3.8971 -2.9999 0.0 0 CFG=2
M  V30 27 C 3.8971 -4.5 0.0 0
M  V30 28 C 2.598 -2.2499 0.0 0
M  V30 29 C 2.598 -5.25 0.0 0
M  V30 END ATOM
M  V30 BEGIN BOND
M  V30 1 2 1 2
M  V30 2 1 2 3
M  V30 3 1 2 4
M  V30 4 1 5 3
M  V30 5 1 6 4
M  V30 6 1 5 7
M  V30 7 1 5 8 CFG=1
M  V30 8 1 6 9 CFG=3
M  V30 9 1 8 10
M  V30 10 1 11 10 CFG=1
M  V30 11 1 12 11
M  V30 12 1 13 11
M  V30 13 1 12 14 CFG=3
M  V30 14 1 15 12
M  V30 15 1 13 16
M  V30 16 1 13 17 CFG=1
M  V30 17 1 14 18
M  V30 18 2 14 19
M  V30 19 1 15 20 CFG=3
M  V30 20 1 15 21
M  V30 21 1 22 19
M  V30 22 1 20 23
M  V30 23 1 22 24 CFG=3
M  V30 24 2 23 25
M  V30 25 1 26 23
M  V30 26 1 26 27
M  V30 27 1 26 28 CFG=3
M  V30 28 1 27 29
M  V30 29 1 6 7
M  V30 30 2 16 18
M  V30 31 1 21 22
M  V30 END BOND
M  V30 BEGIN COLLECTION
M  V30 MDLV30/STERAC1 ATOMS=(8 5 6 11 12 13 15 22 26)
M  V30 END COLLECTION
M  V30 END CTAB
M  END
>  <Molecule Name>


>  <status>
-

>  <cas>
75330-75-5

>  <name>
LOVASTATIN

>  <ID>
616

>  <Smiles>
CC[C@H](C)C(O[C@@H]1[C@H]([C@@H](CC[C@H](C[C@H](C2)O)OC2=O)[C@@H](C)C=C2)C2=C[C@H](C)C1)=O

$$$$

Actelion Java MolfileCreator 2.0

  0  0  0  0  0  0              0 V3000
M  V30 BEGIN CTAB
M  V30 COUNTS 19 21 0 0 0
M  V30 BEGIN ATOM
M  V30 1 O 1.732 -0.5 0.0 0
M  V30 2 C 0.866 0.0 0.0 0
M  V30 3 C 0.866 1.0 0.0 0
M  V30 4 C 0.0 -0.5 0.0 0
M  V30 5 C 1.732 1.4999 0.0 0
M  V30 6 C 0.0 1.4999 0.0 0
M  V30 7 N -0.9135 -0.0932 0.0 0
M  V30 8 C -0.1045 -1.4945 0.0 0
M  V30 9 C 1.732 2.5 0.0 0
M  V30 10 C 0.0 2.5 0.0 0
M  V30 11 C -1.5826 -0.8364 0.0 0
M  V30 12 C -1.4135 0.7727 0.0 0
M  V30 13 C -1.0826 -1.7024 0.0 0
M  V30 14 C 0.866 3.0 0.0 0
M  V30 15 C -2.4962 -0.4296 0.0 0 CFG=1
M  V30 16 C -2.3916 0.5648 0.0 0
M  V30 17 C -3.3622 -0.9296 0.0 0
M  V30 18 O -4.2282 -0.4296 0.0 0
M  V30 19 O -3.3622 -1.9296 0.0 0 CHG=-1
M  V30 END ATOM
M  V30 BEGIN BOND
M  V30 1 2 1 2
M  V30 2 1 2 3
M  V30 3 1 2 4
M  V30 4 2 3 5
M  V30 5 1 3 6
M  V30 6 1 4 7
M  V30 7 2 4 8
M  V30 8 1 5 9
M  V30 9 2 6 10
M  V30 10 1 7 11
M  V30 11 1 7 12
M  V30 12 1 8 13
M  V30 13 2 9 14
M  V30 14 1 15 11
M  V30 15 1 12 16
M  V30 16 1 15 17 CFG=3
M  V30 17 2 17 18
M  V30 18 1 17 19
M  V30 19 1 10 14
M  V30 20 2 11 13
M  V30 21 1 15 16
M  V30 END BOND
M  V30 BEGIN COLLECTION
M  V30 MDLV30/STERAC1 ATOMS=(1 15)
M  V30 END COLLECTION
M  V30 END CTAB
M  END
>  <Molecule Name>


>  <status>
-

>  <cas>
74103-06-3

>  <name>
KETOROLAC

>  <ID>
617

>  <Smiles>
[O-]C(C1c2ccc(C(c3ccccc3)=O)n2CC1)=O

$$$$

Actelion Java MolfileCreator 2.0

  0  0  0  0  0  0              0 V3000
M  V30 BEGIN CTAB
M  V30 COUNTS 13 15 0 0 0
M  V30 BEGIN ATOM
M  V30 1 N 1.6834 0.3386 0.0 0
M  V30 2 C 0.9297 -0.3185 0.0 0 CFG=2
M  V30 3 C 0.0 0.0 0.0 0
M  V30 4 C 1.1221 -1.2998 0.0 0
M  V30 5 C 0.0172 1.0847 0.0 0
M  V30 6 C -0.7406 -0.2764 0.0 0
M  V30 7 C -0.5768 -0.749 0.0 0
M  V30 8 C -0.9986 1.4291 0.0 0 CFG=1
M  V30 9 C -1.9199 0.0655 0.0 0 CFG=2
M  V30 10 C -1.5588 -0.4611 0.0 0 CFG=1
M  V30 11 C -1.8677 1.1055 0.0 0
M  V30 12 C -1.461 0.7879 0.0 0
M  V30 13 C -2.4708 -0.7059 0.0 0
M  V30 END ATOM
M  V30 BEGIN BOND
M  V30 1 1 2 1 CFG=1
M  V30 2 1 2 3
M  V30 3 1 2 4
M  V30 4 1 3 5
M  V30 5 1 3 6
M  V30 6 1 3 7
M  V30 7 1 8 5 CFG=3
M  V30 8 1 9 6 CFG=1
M  V30 9 1 10 7 CFG=3
M  V30 10 1 8 11
M  V30 11 1 8 12
M  V30 12 1 9 13
M  V30 13 1 9 11
M  V30 14 1 10 12
M  V30 15 1 10 13
M  V30 END BOND
M  V30 BEGIN COLLECTION
M  V30 MDLV30/STEABS ATOMS=(3 8 9 10)
M  V30 MDLV30/STERAC1 ATOMS=(1 2)
M  V30 END COLLECTION
M  V30 END CTAB
M  END
>  <Molecule Name>


>  <status>
-

>  <cas>
13392-28-4

>  <name>
RIMANTADINE

>  <ID>
618

>  <Smiles>
CC(C1(C[C@H](C2)C3)C[C@H]3C[C@H]2C1)N

$$$$

Actelion Java MolfileCreator 2.0

  0  0  0  0  0  0              0 V3000
M  V30 BEGIN CTAB
M  V30 COUNTS 27 30 0 0 0
M  V30 BEGIN ATOM
M  V30 1 O 1.732 1.4999 0.0 0
M  V30 2 C 0.9061 0.9567 0.0 0
M  V30 3 O 0.816 -0.1737 0.0 0
M  V30 4 C 0.0 1.5 0.0 0
M  V30 5 C 0.0 -0.5 0.0 0 CFG=2
M  V30 6 C 0.8386 -1.0446 0.0 0
M  V30 7 C -0.0523 0.4986 0.0 0 CFG=2
M  V30 8 C -0.9335 -0.8583 0.0 0
M  V30 9 C 1.6773 -1.5892 0.0 0
M  V30 10 C -1.0182 0.7574 0.0 0 CFG=1
M  V30 11 C 0.6414 1.3151 0.0 0
M  V30 12 C 0.9042 0.133 0.0 0
M  V30 13 C -1.5629 -0.0812 0.0 0
M  V30 14 C -1.277 1.7233 0.0 0 CFG=1
M  V30 15 C 0.3959 2.1716 0.0 0
M  V30 16 C 1.6583 0.7695 0.0 0
M  V30 17 C -0.5699 2.4304 0.0 0 CFG=2
M  V30 18 C -2.243 1.9821 0.0 0
M  V30 19 C -0.8287 3.3964 0.0 0 CFG=2
M  V30 20 C -2.5018 2.9481 0.0 0
M  V30 21 C -1.7947 3.6552 0.0 0
M  V30 22 C -0.1216 4.1035 0.0 0
M  V30 23 C -2.0535 4.6211 0.0 0
M  V30 24 C -0.3805 5.0694 0.0 0
M  V30 25 C -1.3464 5.3282 0.0 0
M  V30 26 N -1.6052 6.2941 0.0 0
M  V30 27 O -0.8981 7.0012 0.0 0
M  V30 END ATOM
M  V30 BEGIN BOND
M  V30 1 2 1 2
M  V30 2 1 2 3
M  V30 3 1 2 4
M  V30 4 1 5 3 CFG=1
M  V30 5 1 5 6
M  V30 6 1 7 5
M  V30 7 1 5 8
M  V30 8 3 6 9
M  V30 9 1 10 7
M  V30 10 1 7 11
M  V30 11 1 7 12 CFG=1
M  V30 12 1 8 13
M  V30 13 1 14 10
M  V30 14 1 11 15
M  V30 15 1 12 16
M  V30 16 1 17 14
M  V30 17 1 14 18 CFG=3
M  V30 18 1 19 17
M  V30 19 1 18 20
M  V30 20 1 19 21
M  V30 21 1 19 22 CFG=3
M  V30 22 2 21 23
M  V30 23 1 22 24
M  V30 24 1 23 25
M  V30 25 2 25 26
M  V30 26 1 26 27
M  V30 27 1 10 13 CFG=1
M  V30 28 1 17 15 CFG=1
M  V30 29 1 20 21
M  V30 30 1 24 25
M  V30 END BOND
M  V30 BEGIN COLLECTION
M  V30 MDLV30/STERAC1 ATOMS=(6 5 7 10 14 17 19)
M  V30 END COLLECTION
M  V30 END CTAB
M  END
>  <Molecule Name>


>  <status>
-

>  <cas>
35189-28-7

>  <name>
NORGESTIMATE

>  <ID>
619

>  <Smiles>
CC[C@](CC1)([C@@H](CC2)[C@H](CC3)[C@H]1[C@@H](CC1)C3=C/C1=N/O)[C@@]2(C#C)OC(C)=O

$$$$

Actelion Java MolfileCreator 2.0

  0  0  0  0  0  0              0 V3000
M  V30 BEGIN CTAB
M  V30 COUNTS 19 20 0 0 0
M  V30 BEGIN ATOM
M  V30 1 O 4.1282 0.9906 0.0 0
M  V30 2 C 4.7159 0.1816 0.0 0
M  V30 3 N 4.3092 -0.7318 0.0 0
M  V30 4 N 5.7105 0.2861 0.0 0
M  V30 5 C 4.897 -1.5408 0.0 0
M  V30 6 C 3.3147 -0.8364 0.0 0 CFG=1
M  V30 7 C 6.2982 -0.5228 0.0 0
M  V30 8 C 5.8915 -1.4363 0.0 0
M  V30 9 O 2.6455 -0.0932 0.0 0
M  V30 10 C 2.8147 -1.7024 0.0 0
M  V30 11 O 7.2928 -0.4182 0.0 0
M  V30 12 C 6.4793 -2.2453 0.0 0
M  V30 13 C 1.732 -0.5 0.0 0 CFG=2
M  V30 14 C 1.8365 -1.4945 0.0 0 CFG=2
M  V30 15 C 0.866 0.0 0.0 0
M  V30 16 N 1.0934 -2.1636 0.0 0
M  V30 17 O 0.0 -0.5 0.0 0
M  V30 18 N 1.3013 -3.1418 0.0 0 CHG=1
M  V30 19 N 1.5092 -4.1199 0.0 0 CHG=-1
M  V30 END ATOM
M  V30 BEGIN BOND
M  V30 1 2 1 2
M  V30 2 1 2 3
M  V30 3 1 2 4
M  V30 4 1 3 5
M  V30 5 1 6 3 CFG=3
M  V30 6 1 4 7
M  V30 7 2 5 8
M  V30 8 1 6 9
M  V30 9 1 6 10
M  V30 10 2 7 11
M  V30 11 1 8 12
M  V30 12 1 13 9
M  V30 13 1 14 10
M  V30 14 1 13 15 CFG=3
M  V30 15 1 14 16 CFG=1
M  V30 16 1 15 17
M  V30 17 2 16 18
M  V30 18 2 18 19
M  V30 19 1 7 8
M  V30 20 1 13 14
M  V30 END BOND
M  V30 BEGIN COLLECTION
M  V30 MDLV30/STERAC1 ATOMS=(3 6 13 14)
M  V30 END COLLECTION
M  V30 END CTAB
M  END
>  <Molecule Name>


>  <status>
-

>  <cas>
30516-87-1

>  <name>
ZIDOVUDINE

>  <ID>
620

>  <Smiles>
CC(C(N1)=O)=CN([C@H](C2)O[C@@H](CO)[C@@H]2N=[N+]=[N-])C1=O

$$$$

Actelion Java MolfileCreator 2.0

  0  0  0  0  0  0              0 V3000
M  V30 BEGIN CTAB
M  V30 COUNTS 27 30 0 0 0
M  V30 BEGIN ATOM
M  V30 1 Cl 7.9798 -8.8829 0.0 0
M  V30 2 C 8.3136 -7.4205 0.0 0
M  V30 3 C 9.7469 -6.9784 0.0 0
M  V30 4 C 7.214 -6.4003 0.0 0
M  V30 5 C 10.0807 -5.516 0.0 0
M  V30 6 C 7.5478 -4.9379 0.0 0
M  V30 7 C 8.9811 -4.4958 0.0 0
M  V30 8 C 11.5639 -5.2925 0.0 0
M  V30 9 C 9.0932 -3.0 0.0 0
M  V30 10 C 12.3139 -3.9934 0.0 0
M  V30 11 C 10.3326 -2.155 0.0 0
M  V30 12 C 7.7942 -2.2499 0.0 0
M  V30 13 C 11.7659 -2.5971 0.0 0
M  V30 14 N 9.9988 -0.6926 0.0 0
M  V30 15 C 7.7942 -0.75 0.0 0
M  V30 16 C 6.4951 -2.9999 0.0 0
M  V30 17 C 12.8655 -1.5768 0.0 0
M  V30 18 C 11.0984 0.3276 0.0 0
M  V30 19 C 6.4951 0.0 0.0 0
M  V30 20 C 5.1961 -2.25 0.0 0
M  V30 21 C 12.5317 -0.1145 0.0 0
M  V30 22 N 5.1961 -0.75 0.0 0
M  V30 23 C 3.8971 0.0 0.0 0
M  V30 24 O 3.8971 1.5 0.0 0
M  V30 25 O 2.598 -0.75 0.0 0
M  V30 26 C 1.299 0.0 0.0 0
M  V30 27 C 0.0 -0.75 0.0 0
M  V30 END ATOM
M  V30 BEGIN BOND
M  V30 1 1 1 2
M  V30 2 2 2 3
M  V30 3 1 2 4
M  V30 4 1 3 5
M  V30 5 2 4 6
M  V30 6 2 5 7
M  V30 7 1 5 8
M  V30 8 1 7 9
M  V30 9 1 8 10
M  V30 10 1 9 11
M  V30 11 2 9 12
M  V30 12 1 10 13
M  V30 13 1 11 14
M  V30 14 1 12 15
M  V30 15 1 12 16
M  V30 16 1 13 17
M  V30 17 2 14 18
M  V30 18 1 15 19
M  V30 19 1 16 20
M  V30 20 2 17 21
M  V30 21 1 19 22
M  V30 22 1 22 23
M  V30 23 2 23 24
M  V30 24 1 23 25
M  V30 25 1 25 26
M  V30 26 1 26 27
M  V30 27 1 6 7
M  V30 28 2 11 13
M  V30 29 1 18 21
M  V30 30 1 20 22
M  V30 END BOND
M  V30 END CTAB
M  END
>  <Molecule Name>


>  <status>
-

>  <cas>
79794-75-5

>  <name>
LORATADINE

>  <ID>
621

>  <Smiles>
CCOC(N(CC1)CCC1=C(c(cc1)c(CC2)cc1Cl)c1c2cccn1)=O

$$$$

Actelion Java MolfileCreator 2.0

  0  0  0  0  0  0              0 V3000
M  V30 BEGIN CTAB
M  V30 COUNTS 27 29 0 0 0
M  V30 BEGIN ATOM
M  V30 1 O 6.0621 0.0 0.0 0
M  V30 2 C 5.1961 -0.4999 0.0 0
M  V30 3 C 4.3301 0.0 0.0 0
M  V30 4 C 5.1961 -1.4999 0.0 0
M  V30 5 C 3.4641 -0.4999 0.0 0
M  V30 6 C 4.3301 1.0 0.0 0
M  V30 7 C 4.3301 -1.9999 0.0 0
M  V30 8 O 3.4641 -1.4999 0.0 0
M  V30 9 C 2.598 0.0 0.0 0
M  V30 10 C 3.4641 1.5 0.0 0
M  V30 11 C 4.3301 -2.9999 0.0 0
M  V30 12 C 2.598 0.9999 0.0 0
M  V30 13 C 1.732 -0.5 0.0 0
M  V30 14 C 3.4641 2.4999 0.0 0
M  V30 15 O 3.4641 -3.5 0.0 0
M  V30 16 O 5.1961 -3.4999 0.0 0 CHG=-1
M  V30 17 N 1.732 1.4999 0.0 0
M  V30 18 C 1.732 -1.5 0.0 0
M  V30 19 O 4.3301 3.0 0.0 0
M  V30 20 C 2.598 2.9999 0.0 0
M  V30 21 C 1.732 2.4999 0.0 0
M  V30 22 C 0.866 0.9999 0.0 0
M  V30 23 C 0.866 -2.0 0.0 0
M  V30 24 C 0.866 2.9999 0.0 0
M  V30 25 C 0.866 0.0 0.0 0
M  V30 26 O 0.866 3.9999 0.0 0
M  V30 27 O 0.0 2.4999 0.0 0 CHG=-1
M  V30 END ATOM
M  V30 BEGIN BOND
M  V30 1 2 1 2
M  V30 2 1 2 3
M  V30 3 1 2 4
M  V30 4 2 3 5
M  V30 5 1 3 6
M  V30 6 2 4 7
M  V30 7 1 5 8
M  V30 8 1 5 9
M  V30 9 2 6 10
M  V30 10 1 7 11
M  V30 11 2 9 12
M  V30 12 1 9 13
M  V30 13 1 10 14
M  V30 14 2 11 15
M  V30 15 1 11 16
M  V30 16 1 12 17
M  V30 17 1 13 18
M  V30 18 2 14 19
M  V30 19 1 14 20
M  V30 20 1 17 21
M  V30 21 1 17 22
M  V30 22 1 18 23
M  V30 23 1 21 24
M  V30 24 1 22 25
M  V30 25 2 24 26
M  V30 26 1 24 27
M  V30 27 1 7 8
M  V30 28 1 10 12
M  V30 29 2 20 21
M  V30 END BOND
M  V30 END CTAB
M  END
>  <Molecule Name>


>  <status>
DISCONTINUED

>  <cas>
69049-73-6

>  <name>
NEDOCROMIL

>  <ID>
622

>  <Smiles>
CCCc(c(OC(C([O-])=O)=C1)c(cc23)C1=O)c2N(CC)C(C([O-])=O)=CC3=O

$$$$

Actelion Java MolfileCreator 2.0

  0  0  0  0  0  0              0 V3000
M  V30 BEGIN CTAB
M  V30 COUNTS 18 19 0 0 0
M  V30 BEGIN ATOM
M  V30 1 O 7.56 0.8716 0.0 0
M  V30 2 C 6.8909 0.1284 0.0 0
M  V30 3 N 7.1999 -0.8225 0.0 0
M  V30 4 C 5.9128 0.3364 0.0 0
M  V30 5 C 6.5308 -1.5657 0.0 0
M  V30 6 N 5.4128 1.2024 0.0 0
M  V30 7 C 5.2436 -0.4067 0.0 0
M  V30 8 N 5.5526 -1.3577 0.0 0
M  V30 9 N 6.8398 -2.5167 0.0 0
M  V30 10 C 4.4346 0.9945 0.0 0
M  V30 11 N 4.3301 0.0 0.0 0
M  V30 12 C 3.4641 -0.5 0.0 0
M  V30 13 O 2.598 0.0 0.0 0
M  V30 14 C 1.732 -0.5 0.0 0
M  V30 15 C 1.732 -1.5 0.0 0
M  V30 16 C 0.866 0.0 0.0 0
M  V30 17 O 2.598 -1.9999 0.0 0
M  V30 18 O 0.0 -0.5 0.0 0
M  V30 END ATOM
M  V30 BEGIN BOND
M  V30 1 2 1 2
M  V30 2 1 2 3
M  V30 3 1 2 4
M  V30 4 2 3 5
M  V30 5 1 4 6
M  V30 6 2 4 7
M  V30 7 1 5 8
M  V30 8 1 5 9
M  V30 9 2 6 10
M  V30 10 1 7 11
M  V30 11 1 11 12
M  V30 12 1 12 13
M  V30 13 1 13 14
M  V30 14 1 14 15
M  V30 15 1 14 16
M  V30 16 1 15 17
M  V30 17 1 16 18
M  V30 18 1 7 8
M  V30 19 1 10 11
M  V30 END BOND
M  V30 END CTAB
M  END
>  <Molecule Name>


>  <status>
-

>  <cas>
82410-32-0

>  <name>
GANCICLOVIR

>  <ID>
623

>  <Smiles>
NC(Nc1c2ncn1COC(CO)CO)=NC2=O

$$$$

Actelion Java MolfileCreator 2.0

  0  0  0  0  0  0              0 V3000
M  V30 BEGIN CTAB
M  V30 COUNTS 23 25 0 0 0
M  V30 BEGIN ATOM
M  V30 1 O 1.3009 -2.9767 0.0 0
M  V30 2 C 1.2636 -1.5739 0.0 0
M  V30 3 N 2.6061 -0.8899 0.0 0
M  V30 4 C 0.0 -0.7533 0.0 0
M  V30 5 C -1.3764 -0.1405 0.0 0
M  V30 6 C -0.1574 -2.2518 0.0 0
M  V30 7 C 1.3048 0.0 0.0 0
M  V30 8 C -2.3846 -1.2602 0.0 0
M  V30 9 C -1.842 1.2924 0.0 0
M  V30 10 C -1.6313 -2.5651 0.0 0
M  V30 11 C 0.7926 -3.4225 0.0 0
M  V30 12 C 1.3048 1.5067 0.0 0
M  V30 13 C -3.8584 -0.9469 0.0 0
M  V30 14 C -3.3158 1.6057 0.0 0
M  V30 15 C -2.0969 -3.9981 0.0 0
M  V30 16 C 0.385 -4.8045 0.0 0
M  V30 17 C 2.6097 2.2601 0.0 0
M  V30 18 C -4.324 0.486 0.0 0
M  V30 19 C -1.0887 -5.1178 0.0 0
M  V30 20 N 2.6097 3.7668 0.0 0
M  V30 21 C 3.9146 4.5202 0.0 0
M  V30 22 C 3.9146 6.0269 0.0 0
M  V30 23 C 5.2194 3.7668 0.0 0
M  V30 END ATOM
M  V30 BEGIN BOND
M  V30 1 2 1 2
M  V30 2 1 2 3
M  V30 3 1 2 4
M  V30 4 1 4 5
M  V30 5 1 4 6
M  V30 6 1 4 7
M  V30 7 2 5 8
M  V30 8 1 5 9
M  V30 9 2 6 10
M  V30 10 1 6 11
M  V30 11 1 7 12
M  V30 12 1 8 13
M  V30 13 2 9 14
M  V30 14 1 10 15
M  V30 15 2 11 16
M  V30 16 1 12 17
M  V30 17 2 13 18
M  V30 18 2 15 19
M  V30 19 1 17 20
M  V30 20 1 20 21
M  V30 21 1 21 22
M  V30 22 1 21 23
M  V30 23 1 8 10
M  V30 24 1 14 18
M  V30 25 1 16 19
M  V30 END BOND
M  V30 END CTAB
M  END
>  <Molecule Name>


>  <status>
DISCONTINUED

>  <cas>
74517-78-5

>  <name>
INDECAINIDE

>  <ID>
624

>  <Smiles>
CC(C)NCCCC1(C(N)=O)c(cccc2)c2-c2c1cccc2

$$$$

Actelion Java MolfileCreator 2.0

  0  0  0  0  0  0              0 V3000
M  V30 BEGIN CTAB
M  V30 COUNTS 22 23 0 0 0
M  V30 BEGIN ATOM
M  V30 1 O 5.1961 1.5 0.0 0
M  V30 2 C 4.3301 1.0 0.0 0
M  V30 3 C 3.4641 1.5 0.0 0
M  V30 4 C 4.3301 0.0 0.0 0
M  V30 5 C 3.4641 2.5 0.0 0
M  V30 6 C 2.598 0.9999 0.0 0
M  V30 7 C 3.4641 -0.4999 0.0 0
M  V30 8 O 4.3301 3.0 0.0 0
M  V30 9 O 2.598 3.0 0.0 0 CHG=-1
M  V30 10 C 2.598 0.0 0.0 0
M  V30 11 N 1.732 -0.5 0.0 0
M  V30 12 N 0.866 0.0 0.0 0
M  V30 13 C 0.0 -0.5 0.0 0
M  V30 14 C -0.866 0.0 0.0 0
M  V30 15 C 0.0 -1.4999 0.0 0
M  V30 16 C -1.732 -0.4999 0.0 0
M  V30 17 C -0.866 -1.9999 0.0 0
M  V30 18 C -1.732 -1.4999 0.0 0
M  V30 19 C -2.598 0.0 0.0 0
M  V30 20 O -2.598 -1.9999 0.0 0
M  V30 21 O -2.598 1.0 0.0 0
M  V30 22 O -3.4641 -0.4999 0.0 0 CHG=-1
M  V30 END ATOM
M  V30 BEGIN BOND
M  V30 1 2 1 2
M  V30 2 1 2 3
M  V30 3 1 2 4
M  V30 4 1 3 5
M  V30 5 2 3 6
M  V30 6 2 4 7
M  V30 7 2 5 8
M  V30 8 1 5 9
M  V30 9 1 6 10
M  V30 10 2 10 11
M  V30 11 1 11 12
M  V30 12 1 12 13
M  V30 13 2 13 14
M  V30 14 1 13 15
M  V30 15 1 14 16
M  V30 16 2 15 17
M  V30 17 2 16 18
M  V30 18 1 16 19
M  V30 19 1 18 20
M  V30 20 2 19 21
M  V30 21 1 19 22
M  V30 22 1 7 10
M  V30 23 1 17 18
M  V30 END BOND
M  V30 END CTAB
M  END
>  <Molecule Name>


>  <status>
-

>  <cas>
15722-48-2

>  <name>
OLSALAZINE

>  <ID>
625

>  <Smiles>
[O-]C(c(cc(cc1)N/N=C(/C=C2)\C=C(C([O-])=O)C2=O)c1O)=O

$$$$

Actelion Java MolfileCreator 2.0

  0  0  0  0  0  0              0 V3000
M  V30 BEGIN CTAB
M  V30 COUNTS 26 29 0 0 0
M  V30 BEGIN ATOM
M  V30 1 F 3.4641 -4.4999 0.0 0
M  V30 2 C 3.4641 -3.4999 0.0 0
M  V30 3 C 4.3301 -3.0 0.0 0
M  V30 4 C 2.598 -2.9999 0.0 0
M  V30 5 N 5.1961 -3.5 0.0 0
M  V30 6 C 4.3301 -1.9999 0.0 0
M  V30 7 C 2.598 -2.0 0.0 0
M  V30 8 C 5.1961 -4.5 0.0 0
M  V30 9 C 6.0621 -3.0 0.0 0
M  V30 10 O 5.1961 -1.4999 0.0 0
M  V30 11 C 3.4641 -1.5 0.0 0
M  V30 12 C 1.732 -1.5 0.0 0
M  V30 13 C 6.0621 -5.0 0.0 0
M  V30 14 C 6.9282 -3.5 0.0 0
M  V30 15 C 5.1961 -0.4999 0.0 0
M  V30 16 N 3.4641 -0.5 0.0 0
M  V30 17 O 0.866 -2.0 0.0 0
M  V30 18 C 1.732 -0.5 0.0 0
M  V30 19 N 6.9282 -4.5 0.0 0
M  V30 20 C 4.3301 0.0 0.0 0 CFG=1
M  V30 21 C 2.598 0.0 0.0 0
M  V30 22 C 0.866 0.0 0.0 0
M  V30 23 C 7.7942 -5.0 0.0 0
M  V30 24 C 4.3301 0.9999 0.0 0
M  V30 25 O 0.866 1.0 0.0 0
M  V30 26 O 0.0 -0.5 0.0 0 CHG=-1
M  V30 END ATOM
M  V30 BEGIN BOND
M  V30 1 1 1 2
M  V30 2 2 2 3
M  V30 3 1 2 4
M  V30 4 1 3 5
M  V30 5 1 3 6
M  V30 6 2 4 7
M  V30 7 1 5 8
M  V30 8 1 5 9
M  V30 9 1 6 10
M  V30 10 2 6 11
M  V30 11 1 7 12
M  V30 12 1 8 13
M  V30 13 1 9 14
M  V30 14 1 10 15
M  V30 15 1 11 16
M  V30 16 2 12 17
M  V30 17 1 12 18
M  V30 18 1 13 19
M  V30 19 1 20 15
M  V30 20 1 16 21
M  V30 21 1 18 22
M  V30 22 1 19 23
M  V30 23 1 20 24 CFG=1
M  V30 24 2 22 25
M  V30 25 1 22 26
M  V30 26 1 7 11
M  V30 27 1 14 19
M  V30 28 1 16 20
M  V30 29 2 18 21
M  V30 END BOND
M  V30 BEGIN COLLECTION
M  V30 MDLV30/STERAC1 ATOMS=(1 20)
M  V30 END COLLECTION
M  V30 END CTAB
M  END
>  <Molecule Name>


>  <status>
-

>  <cas>
82419-36-1

>  <name>
OFLOXACIN

>  <ID>
626

>  <Smiles>
CC1N(C=C(C([O-])=O)C(c2cc(F)c3N4CCN(C)CC4)=O)c2c3OC1

$$$$

Actelion Java MolfileCreator 2.0

  0  0  0  0  0  0              0 V3000
M  V30 BEGIN CTAB
M  V30 COUNTS 30 33 0 0 0
M  V30 BEGIN ATOM
M  V30 1 S 6.9282 1.4999 0.0 0
M  V30 2 C 6.0621 0.9999 0.0 0
M  V30 3 C 7.7942 0.9999 0.0 0
M  V30 4 C 6.0621 0.0 0.0 0
M  V30 5 C 5.1961 1.4999 0.0 0
M  V30 6 C 7.7942 0.0 0.0 0
M  V30 7 C 8.6602 1.4999 0.0 0
M  V30 8 N 6.9282 -0.5 0.0 0
M  V30 9 C 5.1961 -0.5 0.0 0
M  V30 10 C 4.3301 0.9999 0.0 0
M  V30 11 C 8.6602 -0.5 0.0 0
M  V30 12 C 9.5262 0.9999 0.0 0
M  V30 13 C 6.9282 -1.5 0.0 0
M  V30 14 C 4.3301 0.0 0.0 0
M  V30 15 C 9.5262 0.0 0.0 0
M  V30 16 O 6.0621 -2.0 0.0 0
M  V30 17 C 7.7942 -2.0 0.0 0
M  V30 18 N 3.4641 -0.5 0.0 0
M  V30 19 C 7.7942 -3.0 0.0 0
M  V30 20 C 2.598 0.0 0.0 0
M  V30 21 N 8.6602 -3.5 0.0 0
M  V30 22 O 2.598 1.0 0.0 0
M  V30 23 O 1.732 -0.5 0.0 0
M  V30 24 C 8.6602 -4.5 0.0 0
M  V30 25 C 9.5262 -3.0 0.0 0
M  V30 26 C 0.866 0.0 0.0 0
M  V30 27 C 9.5262 -5.0 0.0 0
M  V30 28 C 10.3923 -3.5 0.0 0
M  V30 29 C 0.0 -0.5 0.0 0
M  V30 30 O 10.3923 -4.5 0.0 0
M  V30 END ATOM
M  V30 BEGIN BOND
M  V30 1 1 1 2
M  V30 2 1 1 3
M  V30 3 2 2 4
M  V30 4 1 2 5
M  V30 5 2 3 6
M  V30 6 1 3 7
M  V30 7 1 4 8
M  V30 8 1 4 9
M  V30 9 2 5 10
M  V30 10 1 6 11
M  V30 11 2 7 12
M  V30 12 1 8 13
M  V30 13 2 9 14
M  V30 14 2 11 15
M  V30 15 2 13 16
M  V30 16 1 13 17
M  V30 17 1 14 18
M  V30 18 1 17 19
M  V30 19 1 18 20
M  V30 20 1 19 21
M  V30 21 2 20 22
M  V30 22 1 20 23
M  V30 23 1 21 24
M  V30 24 1 21 25
M  V30 25 1 23 26
M  V30 26 1 24 27
M  V30 27 1 25 28
M  V30 28 1 26 29
M  V30 29 1 27 30
M  V30 30 1 6 8
M  V30 31 1 10 14
M  V30 32 1 12 15
M  V30 33 1 28 30
M  V30 END BOND
M  V30 END CTAB
M  END
>  <Molecule Name>


>  <status>
DISCONTINUED

>  <cas>
31883-05-3

>  <name>
MORICIZINE

>  <ID>
627

>  <Smiles>
CCOC(Nc(cc1)cc2c1Sc(cccc1)c1N2C(CCN1CCOCC1)=O)=O

$$$$

Actelion Java MolfileCreator 2.0

  0  0  0  0  0  0              0 V3000
M  V30 BEGIN CTAB
M  V30 COUNTS 23 26 0 0 0
M  V30 BEGIN ATOM
M  V30 1 Cl 1.299 0.0 0.0 0
M  V30 2 C 0.0 -0.75 0.0 0
M  V30 3 C -1.299 0.0 0.0 0
M  V30 4 C 0.0 -2.2499 0.0 0
M  V30 5 C -2.598 -0.7499 0.0 0
M  V30 6 C -1.299 -2.9999 0.0 0
M  V30 7 N -3.7708 0.1852 0.0 0
M  V30 8 C -2.598 -2.2499 0.0 0
M  V30 9 C -5.2332 -0.1485 0.0 0
M  V30 10 N -3.7708 -3.1852 0.0 0
M  V30 11 N -6.1684 1.0242 0.0 0
M  V30 12 C -5.884 -1.4999 0.0 0
M  V30 13 C -5.2332 -2.8514 0.0 0
M  V30 14 C -5.6204 2.4205 0.0 0
M  V30 15 C -7.6516 0.8006 0.0 0
M  V30 16 C -7.3798 -1.3879 0.0 0
M  V30 17 C -6.0781 -4.0908 0.0 0
M  V30 18 C -6.5556 3.5932 0.0 0
M  V30 19 C -8.5869 1.9733 0.0 0
M  V30 20 C -8.2248 -2.6272 0.0 0
M  V30 21 C -7.574 -3.9787 0.0 0
M  V30 22 N -8.0389 3.3696 0.0 0
M  V30 23 C -8.9741 4.5424 0.0 0
M  V30 END ATOM
M  V30 BEGIN BOND
M  V30 1 1 1 2
M  V30 2 2 2 3
M  V30 3 1 2 4
M  V30 4 1 3 5
M  V30 5 2 4 6
M  V30 6 1 5 7
M  V30 7 2 5 8
M  V30 8 1 7 9
M  V30 9 1 8 10
M  V30 10 1 9 11
M  V30 11 2 9 12
M  V30 12 2 10 13
M  V30 13 1 11 14
M  V30 14 1 11 15
M  V30 15 1 12 16
M  V30 16 1 13 17
M  V30 17 1 14 18
M  V30 18 1 15 19
M  V30 19 2 16 20
M  V30 20 2 17 21
M  V30 21 1 18 22
M  V30 22 1 22 23
M  V30 23 1 6 8
M  V30 24 1 12 13
M  V30 25 1 19 22
M  V30 26 1 20 21
M  V30 END BOND
M  V30 END CTAB
M  END
>  <Molecule Name>


>  <status>
-

>  <cas>
5786-21-0

>  <name>
CLOZAPINE

>  <ID>
628

>  <Smiles>
CN(CC1)CCN1C1=C(C=CC=C2)C2=Nc(ccc(Cl)c2)c2N1

$$$$

Actelion Java MolfileCreator 2.0

  0  0  0  0  0  0              0 V3000
M  V30 BEGIN CTAB
M  V30 COUNTS 14 14 0 0 0
M  V30 BEGIN ATOM
M  V30 1 Cl 2.598 -5.25 0.0 0
M  V30 2 C 1.299 -4.5 0.0 0
M  V30 3 C 1.299 -3.0 0.0 0
M  V30 4 N 0.0 -2.25 0.0 0
M  V30 5 P 0.0 -0.75 0.0 0 CFG=2
M  V30 6 C -1.299 -2.9999 0.0 0
M  V30 7 O 1.299 -1.5 0.0 0
M  V30 8 O -1.299 0.0 0.0 0
M  V30 9 N 1.299 0.0 0.0 0
M  V30 10 C -2.598 -2.2499 0.0 0
M  V30 11 C -2.598 -0.7499 0.0 0
M  V30 12 C 2.598 -0.75 0.0 0
M  V30 13 C 3.8971 0.0 0.0 0
M  V30 14 Cl 5.1961 -0.75 0.0 0
M  V30 END ATOM
M  V30 BEGIN BOND
M  V30 1 1 1 2
M  V30 2 1 2 3
M  V30 3 1 3 4
M  V30 4 1 5 4
M  V30 5 1 4 6
M  V30 6 2 5 7
M  V30 7 1 5 8
M  V30 8 1 5 9 CFG=3
M  V30 9 1 6 10
M  V30 10 1 8 11
M  V30 11 1 9 12
M  V30 12 1 12 13
M  V30 13 1 13 14
M  V30 14 1 10 11
M  V30 END BOND
M  V30 BEGIN COLLECTION
M  V30 MDLV30/STERAC1 ATOMS=(1 5)
M  V30 END COLLECTION
M  V30 END CTAB
M  END
>  <Molecule Name>


>  <status>
-

>  <cas>
3778-73-2

>  <name>
IFOSFAMIDE

>  <ID>
629

>  <Smiles>
O=P1(NCCCl)OCCCN1CCCl

$$$$

Actelion Java MolfileCreator 2.0

  0  0  0  0  0  0              0 V3000
M  V30 BEGIN CTAB
M  V30 COUNTS 7 6 0 0 0
M  V30 BEGIN ATOM
M  V30 1 S 2.598 0.0 0.0 0
M  V30 2 O 3.098 -0.866 0.0 0
M  V30 3 O 2.098 0.866 0.0 0
M  V30 4 O 3.4641 0.5 0.0 0
M  V30 5 C 1.732 -0.5 0.0 0
M  V30 6 C 0.866 0.0 0.0 0
M  V30 7 S 0.0 -0.5 0.0 0
M  V30 END ATOM
M  V30 BEGIN BOND
M  V30 1 2 1 2
M  V30 2 2 1 3
M  V30 3 1 1 4
M  V30 4 1 1 5
M  V30 5 1 5 6
M  V30 6 1 6 7
M  V30 END BOND
M  V30 END CTAB
M  END
>  <Molecule Name>


>  <status>
-

>  <cas>
19767-45-4

>  <name>
MESNA

>  <ID>
630

>  <Smiles>
OS(CCS)(=O)=O

$$$$

Actelion Java MolfileCreator 2.0

  0  0  0  0  0  0              0 V3000
M  V30 BEGIN CTAB
M  V30 COUNTS 30 32 0 0 0
M  V30 BEGIN ATOM
M  V30 1 O 0.0 -2.25 0.0 0
M  V30 2 C 0.0 -0.75 0.0 0
M  V30 3 O 1.299 0.0 0.0 0
M  V30 4 C -1.299 0.0 0.0 0
M  V30 5 C 1.299 1.5 0.0 0 CFG=1
M  V30 6 C -1.299 1.5 0.0 0 CFG=1
M  V30 7 C 0.0 2.25 0.0 0
M  V30 8 C 2.598 2.25 0.0 0
M  V30 9 O -2.598 2.25 0.0 0
M  V30 10 C 3.8971 1.5 0.0 0
M  V30 11 C 5.1961 2.25 0.0 0 CFG=2
M  V30 12 C 6.4951 1.5 0.0 0 CFG=2
M  V30 13 C 5.1961 3.75 0.0 0 CFG=2
M  V30 14 C 7.7942 2.25 0.0 0
M  V30 15 C 6.4951 0.0 0.0 0 CFG=1
M  V30 16 C 6.4951 4.5 0.0 0
M  V30 17 C 3.8971 4.5 0.0 0
M  V30 18 C 7.7942 3.75 0.0 0
M  V30 19 C 9.0932 1.5 0.0 0
M  V30 20 O 5.1961 -0.75 0.0 0
M  V30 21 C 7.7942 -0.75 0.0 0
M  V30 22 C 9.0932 0.0 0.0 0 CFG=1
M  V30 23 C 5.1961 -2.25 0.0 0
M  V30 24 C 10.3923 -0.75 0.0 0
M  V30 25 O 6.4951 -3.0 0.0 0
M  V30 26 C 3.8971 -3.0 0.0 0
M  V30 27 C 3.8971 -4.5 0.0 0
M  V30 28 C 2.3971 -3.0 0.0 0
M  V30 29 C 3.1471 -1.7009 0.0 0
M  V30 30 C 2.598 -5.25 0.0 0
M  V30 END ATOM
M  V30 BEGIN BOND
M  V30 1 2 1 2
M  V30 2 1 2 3
M  V30 3 1 2 4
M  V30 4 1 5 3
M  V30 5 1 6 4
M  V30 6 1 5 7
M  V30 7 1 5 8 CFG=1
M  V30 8 1 6 9 CFG=3
M  V30 9 1 8 10
M  V30 10 1 11 10 CFG=1
M  V30 11 1 12 11
M  V30 12 1 13 11
M  V30 13 1 12 14 CFG=3
M  V30 14 1 15 12
M  V30 15 1 13 16
M  V30 16 1 13 17 CFG=1
M  V30 17 1 14 18
M  V30 18 2 14 19
M  V30 19 1 15 20 CFG=3
M  V30 20 1 15 21
M  V30 21 1 22 19
M  V30 22 1 20 23
M  V30 23 1 22 24 CFG=3
M  V30 24 2 23 25
M  V30 25 1 23 26
M  V30 26 1 26 27
M  V30 27 1 26 28
M  V30 28 1 26 29
M  V30 29 1 27 30
M  V30 30 1 6 7
M  V30 31 2 16 18
M  V30 32 1 21 22
M  V30 END BOND
M  V30 BEGIN COLLECTION
M  V30 MDLV30/STERAC1 ATOMS=(7 5 6 11 12 13 15 22)
M  V30 END COLLECTION
M  V30 END CTAB
M  END
>  <Molecule Name>


>  <status>
-

>  <cas>
79902-63-9

>  <name>
SIMVASTATIN

>  <ID>
631

>  <Smiles>
CCC(C)(C)C(O[C@@H]1[C@H]([C@@H](CC[C@H](C[C@H](C2)O)OC2=O)[C@@H](C)C=C2)C2=C[C@H](C)C1)=O

$$$$

Actelion Java MolfileCreator 2.0

  0  0  0  0  0  0              0 V3000
M  V30 BEGIN CTAB
M  V30 COUNTS 15 16 0 0 0
M  V30 BEGIN ATOM
M  V30 1 Cl 2.598 1.0 0.0 0
M  V30 2 C 2.598 0.0 0.0 0
M  V30 3 C 1.732 -0.5 0.0 0
M  V30 4 C 3.4641 -0.4999 0.0 0
M  V30 5 N 0.866 0.0 0.0 0
M  V30 6 C 1.732 -1.5 0.0 0
M  V30 7 C 3.4641 -1.4999 0.0 0
M  V30 8 C 0.0 -0.5 0.0 0
M  V30 9 Cl 0.866 -2.0 0.0 0
M  V30 10 C 2.598 -1.9999 0.0 0
M  V30 11 N 4.3301 -1.9999 0.0 0
M  V30 12 N -0.9135 -0.0932 0.0 0
M  V30 13 N -0.1045 -1.4945 0.0 0
M  V30 14 C -1.5826 -0.8364 0.0 0
M  V30 15 C -1.0826 -1.7024 0.0 0
M  V30 END ATOM
M  V30 BEGIN BOND
M  V30 1 1 1 2
M  V30 2 2 2 3
M  V30 3 1 2 4
M  V30 4 1 3 5
M  V30 5 1 3 6
M  V30 6 2 4 7
M  V30 7 1 5 8
M  V30 8 1 6 9
M  V30 9 2 6 10
M  V30 10 1 7 11
M  V30 11 2 8 12
M  V30 12 1 8 13
M  V30 13 1 12 14
M  V30 14 1 13 15
M  V30 15 1 7 10
M  V30 16 1 14 15
M  V30 END BOND
M  V30 END CTAB
M  END
>  <Molecule Name>


>  <status>
-

>  <cas>
66711-21-5

>  <name>
APRACLONIDINE

>  <ID>
632

>  <Smiles>
Nc(cc1Cl)cc(Cl)c1NC1=NCCN1

$$$$

Actelion Java MolfileCreator 2.0

  0  0  0  0  0  0              0 V3000
M  V30 BEGIN CTAB
M  V30 COUNTS 28 29 0 0 0
M  V30 BEGIN ATOM
M  V30 1 Cl 7.1782 2.4999 0.0 0
M  V30 2 C 6.0621 2.9999 0.0 0
M  V30 3 C 5.1961 2.5 0.0 0
M  V30 4 C 6.0621 3.9999 0.0 0
M  V30 5 C 4.3301 3.0 0.0 0
M  V30 6 C 5.1961 1.4999 0.0 0 CFG=2
M  V30 7 C 5.1961 4.5 0.0 0
M  V30 8 C 4.3301 4.0 0.0 0
M  V30 9 C 4.3301 1.0 0.0 0
M  V30 10 C 6.0621 0.9999 0.0 0
M  V30 11 C 4.3301 0.0 0.0 0
M  V30 12 C 3.4641 1.5 0.0 0
M  V30 13 C 6.0621 0.0 0.0 0
M  V30 14 C 6.9282 1.4999 0.0 0
M  V30 15 N 5.1961 -0.5 0.0 0
M  V30 16 C 3.4641 -0.5 0.0 0
M  V30 17 O 2.598 1.0 0.0 0
M  V30 18 O 3.4641 2.5 0.0 0
M  V30 19 C 6.9282 -0.5 0.0 0
M  V30 20 O 6.9282 2.7499 0.0 0
M  V30 21 O 7.7942 0.9999 0.0 0
M  V30 22 O 2.598 0.0 0.0 0
M  V30 23 C 2.598 3.0 0.0 0
M  V30 24 C 8.6602 1.4999 0.0 0
M  V30 25 C 1.732 -0.5 0.0 0
M  V30 26 C 2.598 4.0 0.0 0
M  V30 27 C 0.866 0.0 0.0 0
M  V30 28 N 0.0 -0.5 0.0 0
M  V30 END ATOM
M  V30 BEGIN BOND
M  V30 1 1 1 2
M  V30 2 2 2 3
M  V30 3 1 2 4
M  V30 4 1 3 5
M  V30 5 1 6 3 CFG=1
M  V30 6 2 4 7
M  V30 7 2 5 8
M  V30 8 1 6 9
M  V30 9 1 6 10
M  V30 10 2 9 11
M  V30 11 1 9 12
M  V30 12 2 10 13
M  V30 13 1 10 14
M  V30 14 1 11 15
M  V30 15 1 11 16
M  V30 16 2 12 17
M  V30 17 1 12 18
M  V30 18 1 13 19
M  V30 19 2 14 20
M  V30 20 1 14 21
M  V30 21 1 16 22
M  V30 22 1 18 23
M  V30 23 1 21 24
M  V30 24 1 22 25
M  V30 25 1 23 26
M  V30 26 1 25 27
M  V30 27 1 27 28
M  V30 28 1 7 8
M  V30 29 1 13 15
M  V30 END BOND
M  V30 BEGIN COLLECTION
M  V30 MDLV30/STERAC1 ATOMS=(1 6)
M  V30 END COLLECTION
M  V30 END CTAB
M  END
>  <Molecule Name>


>  <status>
-

>  <cas>
103129-82-4

>  <name>
LEVAMLODIPINE

>  <ID>
633

>  <Smiles>
CCOC(C(C1c(cccc2)c2Cl)=C(COCCN)NC(C)=C1C(OC)=O)=O

$$$$

Actelion Java MolfileCreator 2.0

  0  0  0  0  0  0              0 V3000
M  V30 BEGIN CTAB
M  V30 COUNTS 30 34 0 0 0
M  V30 BEGIN ATOM
M  V30 1 O 4.7349 -2.2212 0.0 0
M  V30 2 C 5.404 -1.4781 0.0 0
M  V30 3 O 6.3985 -1.5826 0.0 0
M  V30 4 C 5.1961 -0.5 0.0 0 CFG=1
M  V30 5 C 6.8053 -0.6691 0.0 0
M  V30 6 C 4.3301 0.0 0.0 0 CFG=2
M  V30 7 C 6.0621 0.0 0.0 0 CFG=1
M  V30 8 C 4.3301 1.0 0.0 0
M  V30 9 C 3.4641 -0.5 0.0 0
M  V30 10 C 6.0621 0.9999 0.0 0 CFG=1
M  V30 11 C 5.1961 1.4999 0.0 0
M  V30 12 C 3.4641 1.4999 0.0 0
M  V30 13 C 2.598 0.0 0.0 0
M  V30 14 C 3.4641 -1.4999 0.0 0
M  V30 15 O 6.9282 1.4999 0.0 0
M  V30 16 C 5.1961 2.5 0.0 0
M  V30 17 C 3.4641 2.5 0.0 0
M  V30 18 C 1.732 -0.5 0.0 0
M  V30 19 C 2.598 -2.0 0.0 0
M  V30 20 C 4.3301 2.9999 0.0 0
M  V30 21 O 2.7209 3.1691 0.0 0
M  V30 22 O 0.866 0.0 0.0 0
M  V30 23 C 1.732 -1.5 0.0 0
M  V30 24 O 2.598 -3.0 0.0 0
M  V30 25 O 4.1222 3.9781 0.0 0
M  V30 26 C 3.1276 4.0826 0.0 0
M  V30 27 C 0.0 -0.5 0.0 0
M  V30 28 O 0.866 -1.9999 0.0 0
M  V30 29 C 3.4641 -3.5 0.0 0
M  V30 30 C 0.866 -2.9999 0.0 0
M  V30 END ATOM
M  V30 BEGIN BOND
M  V30 1 2 1 2
M  V30 2 1 2 3
M  V30 3 1 4 2 CFG=1
M  V30 4 1 3 5
M  V30 5 1 6 4
M  V30 6 1 7 4
M  V30 7 1 6 8
M  V30 8 1 6 9 CFG=1
M  V30 9 1 10 7
M  V30 10 2 8 11
M  V30 11 1 8 12
M  V30 12 2 9 13
M  V30 13 1 9 14
M  V30 14 1 10 15 CFG=1
M  V30 15 1 11 16
M  V30 16 2 12 17
M  V30 17 1 13 18
M  V30 18 2 14 19
M  V30 19 2 16 20
M  V30 20 1 17 21
M  V30 21 1 18 22
M  V30 22 2 18 23
M  V30 23 1 19 24
M  V30 24 1 20 25
M  V30 25 1 21 26
M  V30 26 1 22 27
M  V30 27 1 23 28
M  V30 28 1 24 29
M  V30 29 1 28 30
M  V30 30 1 7 5 CFG=3
M  V30 31 1 10 11
M  V30 32 1 17 20
M  V30 33 1 19 23
M  V30 34 1 25 26
M  V30 END BOND
M  V30 BEGIN COLLECTION
M  V30 MDLV30/STERAC1 ATOMS=(4 4 6 7 10)
M  V30 END COLLECTION
M  V30 END CTAB
M  END
>  <Molecule Name>


>  <status>
-

>  <cas>
518-28-5

>  <name>
PODOFILOX

>  <ID>
634

>  <Smiles>
COc1cc([C@H]([C@@H]([C@@H](CO2)[C@@H]3O)C2=O)c2c3cc3OCOc3c2)cc(OC)c1OC

$$$$

Actelion Java MolfileCreator 2.0

  0  0  0  0  0  0              0 V3000
M  V30 BEGIN CTAB
M  V30 COUNTS 24 26 0 0 0
M  V30 BEGIN ATOM
M  V30 1 S 1.732 -0.5 0.0 0 CFG=2
M  V30 2 O 2.598 0.0 0.0 0
M  V30 3 C 1.732 -1.5 0.0 0
M  V30 4 C 0.866 0.0 0.0 0
M  V30 5 N 2.541 -2.0877 0.0 0
M  V30 6 N 0.923 -2.0877 0.0 0
M  V30 7 C 0.0 -0.5 0.0 0
M  V30 8 C 2.232 -3.0388 0.0 0
M  V30 9 C 1.232 -3.0388 0.0 0
M  V30 10 N 0.0 -1.4999 0.0 0
M  V30 11 C -0.866 0.0 0.0 0
M  V30 12 C 2.732 -3.9048 0.0 0
M  V30 13 C 0.732 -3.9048 0.0 0
M  V30 14 C -0.866 -2.0 0.0 0
M  V30 15 C -1.732 -0.5 0.0 0
M  V30 16 C -0.866 0.9999 0.0 0
M  V30 17 C 2.232 -4.7708 0.0 0
M  V30 18 C 1.232 -4.7708 0.0 0
M  V30 19 C -1.732 -1.5 0.0 0
M  V30 20 O -2.598 0.0 0.0 0
M  V30 21 O 0.732 -5.6369 0.0 0
M  V30 22 C -2.598 -2.0 0.0 0
M  V30 23 C -2.598 0.9999 0.0 0
M  V30 24 C -0.2679 -5.6369 0.0 0
M  V30 END ATOM
M  V30 BEGIN BOND
M  V30 1 2 1 2
M  V30 2 1 1 3
M  V30 3 1 1 4 CFG=3
M  V30 4 2 3 5
M  V30 5 1 3 6
M  V30 6 1 4 7
M  V30 7 1 5 8
M  V30 8 1 6 9
M  V30 9 2 7 10
M  V30 10 1 7 11
M  V30 11 1 8 12
M  V30 12 1 9 13
M  V30 13 1 10 14
M  V30 14 2 11 15
M  V30 15 1 11 16
M  V30 16 2 12 17
M  V30 17 2 13 18
M  V30 18 2 14 19
M  V30 19 1 15 20
M  V30 20 1 18 21
M  V30 21 1 19 22
M  V30 22 1 20 23
M  V30 23 1 21 24
M  V30 24 2 8 9
M  V30 25 1 15 19
M  V30 26 1 17 18
M  V30 END BOND
M  V30 BEGIN COLLECTION
M  V30 MDLV30/STERAC1 ATOMS=(1 1)
M  V30 END COLLECTION
M  V30 END CTAB
M  END
>  <Molecule Name>


>  <status>
-

>  <cas>
73590-58-6

>  <name>
OMEPRAZOLE

>  <ID>
635

>  <Smiles>
Cc1cnc(CS(c2nc(ccc(OC)c3)c3[nH]2)=O)c(C)c1OC

$$$$

Actelion Java MolfileCreator 2.0

  0  0  0  0  0  0              0 V3000
M  V30 BEGIN CTAB
M  V30 COUNTS 18 18 0 0 0
M  V30 BEGIN ATOM
M  V30 1 O 3.4641 -1.5 0.0 0
M  V30 2 C 3.4641 -0.5 0.0 0
M  V30 3 N 2.598 0.0 0.0 0
M  V30 4 C 4.3301 0.0 0.0 0
M  V30 5 C 1.732 -0.5 0.0 0
M  V30 6 N 5.1961 -0.5 0.0 0
M  V30 7 C 0.866 0.0 0.0 0 CFG=2
M  V30 8 O 0.866 1.0 0.0 0
M  V30 9 C 0.0 -0.5 0.0 0
M  V30 10 C -0.866 0.0 0.0 0
M  V30 11 C 0.0 -1.4999 0.0 0
M  V30 12 O -0.866 1.0 0.0 0
M  V30 13 C -1.732 -0.4999 0.0 0
M  V30 14 C -0.866 -1.9999 0.0 0
M  V30 15 C -1.732 1.5 0.0 0
M  V30 16 C -1.732 -1.4999 0.0 0
M  V30 17 O -0.866 -2.9999 0.0 0
M  V30 18 C 0.0 -3.4999 0.0 0
M  V30 END ATOM
M  V30 BEGIN BOND
M  V30 1 2 1 2
M  V30 2 1 2 3
M  V30 3 1 2 4
M  V30 4 1 3 5
M  V30 5 1 4 6
M  V30 6 1 7 5
M  V30 7 1 7 8 CFG=1
M  V30 8 1 7 9
M  V30 9 2 9 10
M  V30 10 1 9 11
M  V30 11 1 10 12
M  V30 12 1 10 13
M  V30 13 2 11 14
M  V30 14 1 12 15
M  V30 15 2 13 16
M  V30 16 1 14 17
M  V30 17 1 17 18
M  V30 18 1 14 16
M  V30 END BOND
M  V30 BEGIN COLLECTION
M  V30 MDLV30/STERAC1 ATOMS=(1 7)
M  V30 END COLLECTION
M  V30 END CTAB
M  END
>  <Molecule Name>


>  <status>
-

>  <cas>
42794-76-3

>  <name>
MIDODRINE

>  <ID>
636

>  <Smiles>
COc(cc1)cc(C(CNC(CN)=O)O)c1OC

$$$$
_c001
Actelion Java MolfileCreator 2.0

  0  0  0  0  0  0              0 V3000
M  V30 BEGIN CTAB
M  V30 COUNTS 24 24 0 0 0
M  V30 BEGIN ATOM
M  V30 1 O 8.6602 -0.5 0.0 0
M  V30 2 C 7.7942 0.0 0.0 0
M  V30 3 O 7.7942 0.9999 0.0 0 CHG=-1
M  V30 4 C 6.9282 -0.5 0.0 0
M  V30 5 C 6.0621 0.0 0.0 0
M  V30 6 C 5.1961 -0.5 0.0 0
M  V30 7 C 6.0621 0.9999 0.0 0
M  V30 8 C 4.3301 0.0 0.0 0
M  V30 9 C 3.4641 -0.5 0.0 0
M  V30 10 C 2.598 0.0 0.0 0
M  V30 11 C 1.732 -0.5 0.0 0
M  V30 12 C 2.598 1.0 0.0 0
M  V30 13 C 0.866 0.0 0.0 0
M  V30 14 C 0.0 -0.5 0.0 0
M  V30 15 C -0.866 0.0 0.0 0
M  V30 16 C 0.0 -1.4999 0.0 0
M  V30 17 C -1.732 -0.4999 0.0 0
M  V30 18 C -0.866 1.0 0.0 0
M  V30 19 C -0.866 -1.9999 0.0 0
M  V30 20 C 0.866 -2.0 0.0 0
M  V30 21 C -1.732 -1.4999 0.0 0
M  V30 22 C -2.598 0.0 0.0 0
M  V30 23 O -2.598 -1.9999 0.0 0
M  V30 24 C -2.598 -2.9999 0.0 0
M  V30 END ATOM
M  V30 BEGIN BOND
M  V30 1 2 1 2
M  V30 2 1 2 3
M  V30 3 1 2 4
M  V30 4 2 4 5
M  V30 5 1 5 6
M  V30 6 1 5 7
M  V30 7 2 6 8
M  V30 8 1 8 9
M  V30 9 2 9 10
M  V30 10 1 10 11
M  V30 11 1 10 12
M  V30 12 2 11 13
M  V30 13 1 13 14
M  V30 14 2 14 15
M  V30 15 1 14 16
M  V30 16 1 15 17
M  V30 17 1 15 18
M  V30 18 2 16 19
M  V30 19 1 16 20
M  V30 20 2 17 21
M  V30 21 1 17 22
M  V30 22 1 21 23
M  V30 23 1 23 24
M  V30 24 1 19 21
M  V30 END BOND
M  V30 END CTAB
M  END
>  <Molecule Name>
_c001

>  <status>
-

>  <cas>
55079-83-9

>  <name>
ACITRETIN

>  <ID>
637

>  <Smiles>
C/C(/C=C/c(c(C)c1)c(C)c(C)c1OC)=C\C=C\C(\C)=C\C([O-])=O

$$$$

Actelion Java MolfileCreator 2.0

  0  0  0  0  0  0              0 V3000
M  V30 BEGIN CTAB
M  V30 COUNTS 26 28 0 0 0
M  V30 BEGIN ATOM
M  V30 1 Cl 2.598 -2.25 0.0 0
M  V30 2 C 3.8971 -3.0 0.0 0
M  V30 3 C 5.1961 -2.25 0.0 0
M  V30 4 C 3.8971 -4.5 0.0 0
M  V30 5 C 5.1961 -0.75 0.0 0
M  V30 6 C 6.4951 -3.0 0.0 0
M  V30 7 C 5.1961 -5.25 0.0 0
M  V30 8 N 3.8971 0.0 0.0 0
M  V30 9 C 6.4951 0.0 0.0 0
M  V30 10 C 6.4951 -4.5 0.0 0
M  V30 11 Cl 5.1961 -6.75 0.0 0
M  V30 12 O 3.8971 1.4999 0.0 0
M  V30 13 N 7.7942 -0.75 0.0 0
M  V30 14 C 2.598 2.2499 0.0 0
M  V30 15 C 7.951 -2.2417 0.0 0
M  V30 16 C 9.1645 -0.1398 0.0 0
M  V30 17 C 2.598 3.75 0.0 0
M  V30 18 N 9.4182 -2.5536 0.0 0
M  V30 19 C 10.1682 -1.2546 0.0 0
M  V30 20 C 1.299 4.4999 0.0 0
M  V30 21 C 3.8971 4.5 0.0 0
M  V30 22 Cl 0.0 3.7499 0.0 0
M  V30 23 C 1.299 5.9999 0.0 0
M  V30 24 C 3.8971 6.0 0.0 0
M  V30 25 C 2.598 6.7499 0.0 0
M  V30 26 Cl 2.598 8.25 0.0 0
M  V30 END ATOM
M  V30 BEGIN BOND
M  V30 1 1 1 2
M  V30 2 2 2 3
M  V30 3 1 2 4
M  V30 4 1 3 5
M  V30 5 1 3 6
M  V30 6 2 4 7
M  V30 7 2 5 8
M  V30 8 1 5 9
M  V30 9 2 6 10
M  V30 10 1 7 11
M  V30 11 1 8 12
M  V30 12 1 9 13
M  V30 13 1 12 14
M  V30 14 1 13 15
M  V30 15 1 13 16
M  V30 16 1 14 17
M  V30 17 2 15 18
M  V30 18 2 16 19
M  V30 19 2 17 20
M  V30 20 1 17 21
M  V30 21 1 20 22
M  V30 22 1 20 23
M  V30 23 2 21 24
M  V30 24 2 23 25
M  V30 25 1 25 26
M  V30 26 1 7 10
M  V30 27 1 18 19
M  V30 28 1 24 25
M  V30 END BOND
M  V30 END CTAB
M  END
>  <Molecule Name>


>  <status>
-

>  <cas>
64211-45-6

>  <name>
OXICONAZOLE

>  <ID>
638

>  <Smiles>
Clc1cc(Cl)c(CO/N=C(\Cn2cncc2)/c(ccc(Cl)c2)c2Cl)cc1

$$$$

Actelion Java MolfileCreator 2.0

  0  0  0  0  0  0              0 V3000
M  V30 BEGIN CTAB
M  V30 COUNTS 25 26 0 0 0
M  V30 BEGIN ATOM
M  V30 1 Cl 4.1358 1.8447 0.0 0
M  V30 2 C 5.2581 2.2768 0.0 0
M  V30 3 C 5.2581 3.7947 0.0 0
M  V30 4 C 6.5726 1.5178 0.0 0
M  V30 5 Cl 3.9436 4.5536 0.0 0
M  V30 6 C 6.5726 4.5536 0.0 0
M  V30 7 C 7.8872 2.2768 0.0 0
M  V30 8 C 6.5726 0.0 0.0 0 CFG=2
M  V30 9 C 7.8872 3.7947 0.0 0
M  V30 10 C 5.2581 -0.7589 0.0 0
M  V30 11 C 7.8872 -0.7589 0.0 0
M  V30 12 C 5.2581 -2.2768 0.0 0
M  V30 13 C 3.9436 0.0 0.0 0
M  V30 14 C 7.8872 -2.2768 0.0 0
M  V30 15 C 9.2017 0.0 0.0 0
M  V30 16 N 6.5726 -3.0357 0.0 0
M  V30 17 C 3.9436 -3.0357 0.0 0
M  V30 18 O 2.629 -0.7589 0.0 0
M  V30 19 O 3.8473 1.3542 0.0 0
M  V30 20 C 9.2017 -3.0357 0.0 0
M  V30 21 O 10.5162 -0.7589 0.0 0
M  V30 22 O 9.2017 1.5178 0.0 0
M  V30 23 C 2.629 2.2768 0.0 0
M  V30 24 C 10.5162 2.2768 0.0 0
M  V30 25 C 2.629 3.7947 0.0 0
M  V30 END ATOM
M  V30 BEGIN BOND
M  V30 1 1 1 2
M  V30 2 2 2 3
M  V30 3 1 2 4
M  V30 4 1 3 5
M  V30 5 1 3 6
M  V30 6 2 4 7
M  V30 7 1 8 4 CFG=1
M  V30 8 2 6 9
M  V30 9 1 8 10
M  V30 10 1 8 11
M  V30 11 2 10 12
M  V30 12 1 10 13
M  V30 13 2 11 14
M  V30 14 1 11 15
M  V30 15 1 12 16
M  V30 16 1 12 17
M  V30 17 2 13 18
M  V30 18 1 13 19
M  V30 19 1 14 20
M  V30 20 2 15 21
M  V30 21 1 15 22
M  V30 22 1 19 23
M  V30 23 1 22 24
M  V30 24 1 23 25
M  V30 25 1 7 9
M  V30 26 1 14 16
M  V30 END BOND
M  V30 BEGIN COLLECTION
M  V30 MDLV30/STERAC1 ATOMS=(1 8)
M  V30 END COLLECTION
M  V30 END CTAB
M  END
>  <Molecule Name>


>  <status>
-

>  <cas>
72509-76-3

>  <name>
FELODIPINE

>  <ID>
639

>  <Smiles>
CCOC(C(C1c2cccc(Cl)c2Cl)=C(C)NC(C)=C1C(OC)=O)=O

$$$$

Actelion Java MolfileCreator 2.0

  0  0  0  0  0  0              0 V3000
M  V30 BEGIN CTAB
M  V30 COUNTS 27 29 0 0 0
M  V30 BEGIN ATOM
M  V30 1 Cl 11.2583 0.0 0.0 0
M  V30 2 C 10.3923 -0.5 0.0 0
M  V30 3 C 9.5262 0.0 0.0 0
M  V30 4 C 10.3923 -1.5 0.0 0
M  V30 5 C 8.6602 -0.5 0.0 0
M  V30 6 C 9.5262 -2.0 0.0 0
M  V30 7 C 8.6602 -1.5 0.0 0
M  V30 8 C 7.7942 -2.0 0.0 0 CFG=1
M  V30 9 N 6.9282 -1.5 0.0 0
M  V30 10 C 7.7942 -3.0 0.0 0
M  V30 11 C 6.9282 -0.5 0.0 0
M  V30 12 C 6.0621 -2.0 0.0 0
M  V30 13 C 6.9282 -3.4999 0.0 0
M  V30 14 C 8.6602 -3.5 0.0 0
M  V30 15 C 6.0621 0.0 0.0 0
M  V30 16 C 5.1961 -1.5 0.0 0
M  V30 17 C 6.9282 -4.5 0.0 0
M  V30 18 C 8.6602 -4.5 0.0 0
M  V30 19 N 5.1961 -0.5 0.0 0
M  V30 20 C 7.7942 -5.0 0.0 0
M  V30 21 C 4.3301 0.0 0.0 0
M  V30 22 C 3.4641 -0.5 0.0 0
M  V30 23 O 2.598 0.0 0.0 0
M  V30 24 C 1.732 -0.5 0.0 0
M  V30 25 C 0.866 0.0 0.0 0
M  V30 26 O 0.866 1.0 0.0 0
M  V30 27 O 0.0 -0.5 0.0 0 CHG=-1
M  V30 END ATOM
M  V30 BEGIN BOND
M  V30 1 1 1 2
M  V30 2 2 2 3
M  V30 3 1 2 4
M  V30 4 1 3 5
M  V30 5 2 4 6
M  V30 6 2 5 7
M  V30 7 1 8 7
M  V30 8 1 8 9 CFG=3
M  V30 9 1 8 10
M  V30 10 1 9 11
M  V30 11 1 9 12
M  V30 12 2 10 13
M  V30 13 1 10 14
M  V30 14 1 11 15
M  V30 15 1 12 16
M  V30 16 1 13 17
M  V30 17 2 14 18
M  V30 18 1 15 19
M  V30 19 2 17 20
M  V30 20 1 19 21
M  V30 21 1 21 22
M  V30 22 1 22 23
M  V30 23 1 23 24
M  V30 24 1 24 25
M  V30 25 2 25 26
M  V30 26 1 25 27
M  V30 27 1 6 7
M  V30 28 1 16 19
M  V30 29 1 18 20
M  V30 END BOND
M  V30 BEGIN COLLECTION
M  V30 MDLV30/STERAC1 ATOMS=(1 8)
M  V30 END COLLECTION
M  V30 END CTAB
M  END
>  <Molecule Name>


>  <status>
-

>  <cas>
83881-52-1

>  <name>
CETIRIZINE

>  <ID>
640

>  <Smiles>
[O-]C(COCCN(CC1)CCN1C(c1ccccc1)c(cc1)ccc1Cl)=O

$$$$

Actelion Java MolfileCreator 2.0

  0  0  0  0  0  0              0 V3000
M  V30 BEGIN CTAB
M  V30 COUNTS 20 22 0 0 0
M  V30 BEGIN ATOM
M  V30 1 Cl 5.1961 -4.5 0.0 0
M  V30 2 C 5.1961 -3.5 0.0 0
M  V30 3 C 6.0621 -3.0 0.0 0
M  V30 4 C 4.3301 -3.0 0.0 0
M  V30 5 Cl 6.9282 -3.5 0.0 0
M  V30 6 C 6.0621 -1.9999 0.0 0
M  V30 7 C 4.3301 -1.9999 0.0 0
M  V30 8 C 5.1961 -1.4999 0.0 0
M  V30 9 C 3.4641 -1.4999 0.0 0 CFG=1
M  V30 10 C 3.4641 -0.5 0.0 0
M  V30 11 C 2.598 -1.9999 0.0 0
M  V30 12 C 2.598 0.0 0.0 0
M  V30 13 C 4.3301 0.0 0.0 0
M  V30 14 C 1.732 -1.5 0.0 0
M  V30 15 C 2.598 1.0 0.0 0
M  V30 16 C 1.732 -0.5 0.0 0 CFG=2
M  V30 17 C 4.3301 1.0 0.0 0
M  V30 18 C 3.4641 1.5 0.0 0
M  V30 19 N 0.866 0.0 0.0 0
M  V30 20 C 0.0 -0.5 0.0 0
M  V30 END ATOM
M  V30 BEGIN BOND
M  V30 1 1 1 2
M  V30 2 2 2 3
M  V30 3 1 2 4
M  V30 4 1 3 5
M  V30 5 1 3 6
M  V30 6 2 4 7
M  V30 7 2 6 8
M  V30 8 1 9 7 CFG=3
M  V30 9 1 9 10
M  V30 10 1 9 11
M  V30 11 2 10 12
M  V30 12 1 10 13
M  V30 13 1 11 14
M  V30 14 1 12 15
M  V30 15 1 16 12
M  V30 16 2 13 17
M  V30 17 2 15 18
M  V30 18 1 16 19 CFG=3
M  V30 19 1 19 20
M  V30 20 1 7 8
M  V30 21 1 14 16
M  V30 22 1 17 18
M  V30 END BOND
M  V30 BEGIN COLLECTION
M  V30 MDLV30/STERAC1 ATOMS=(2 9 16)
M  V30 END COLLECTION
M  V30 END CTAB
M  END
>  <Molecule Name>


>  <status>
-

>  <cas>
79617-96-2

>  <name>
SERTRALINE

>  <ID>
641

>  <Smiles>
CN[C@@H](CC[C@H]1c(cc2)cc(Cl)c2Cl)c2c1cccc2

$$$$

Actelion Java MolfileCreator 2.0

  0  0  0  0  0  0              0 V3000
M  V30 BEGIN CTAB
M  V30 COUNTS 24 27 0 0 0
M  V30 BEGIN ATOM
M  V30 1 N 3.6807 1.2024 0.0 0
M  V30 2 N 2.7026 0.9945 0.0 0
M  V30 3 C 4.1807 0.3364 0.0 0
M  V30 4 C 2.598 0.0 0.0 0
M  V30 5 N 3.5116 -0.4067 0.0 0
M  V30 6 C 5.1588 0.1284 0.0 0
M  V30 7 C 1.732 -0.5 0.0 0
M  V30 8 C 3.8206 -1.3577 0.0 0
M  V30 9 C 5.4679 -0.8225 0.0 0
M  V30 10 C 0.866 0.0 0.0 0
M  V30 11 C 4.7987 -1.5657 0.0 0
M  V30 12 N 0.0 -0.5 0.0 0
M  V30 13 C -0.866 0.0 0.0 0
M  V30 14 C 0.0 -1.4999 0.0 0
M  V30 15 C -1.732 -0.4999 0.0 0
M  V30 16 C -0.866 -1.9999 0.0 0
M  V30 17 N -1.732 -1.4999 0.0 0
M  V30 18 C -2.598 -1.9999 0.0 0
M  V30 19 C -3.4641 -1.4999 0.0 0
M  V30 20 C -2.598 -2.9999 0.0 0
M  V30 21 C -4.3301 -1.9999 0.0 0
M  V30 22 C -3.4641 -0.4999 0.0 0
M  V30 23 C -3.4641 -3.4999 0.0 0
M  V30 24 C -4.3301 -2.9999 0.0 0
M  V30 END ATOM
M  V30 BEGIN BOND
M  V30 1 1 1 2
M  V30 2 2 1 3
M  V30 3 2 2 4
M  V30 4 1 3 5
M  V30 5 1 3 6
M  V30 6 1 4 7
M  V30 7 1 5 8
M  V30 8 1 6 9
M  V30 9 1 7 10
M  V30 10 1 8 11
M  V30 11 1 10 12
M  V30 12 1 12 13
M  V30 13 1 12 14
M  V30 14 1 13 15
M  V30 15 1 14 16
M  V30 16 1 15 17
M  V30 17 1 17 18
M  V30 18 2 18 19
M  V30 19 1 18 20
M  V30 20 1 19 21
M  V30 21 1 19 22
M  V30 22 2 20 23
M  V30 23 2 21 24
M  V30 24 1 4 5
M  V30 25 1 9 11
M  V30 26 1 16 17
M  V30 27 1 23 24
M  V30 END BOND
M  V30 END CTAB
M  END
>  <Molecule Name>


>  <status>
DISCONTINUED

>  <cas>
72822-12-9

>  <name>
DAPIPRAZOLE

>  <ID>
642

>  <Smiles>
Cc(cccc1)c1N1CCN(CCc2nnc3n2CCCC3)CC1

$$$$

Actelion Java MolfileCreator 2.0

  0  0  0  0  0  0              0 V3000
M  V30 BEGIN CTAB
M  V30 COUNTS 31 33 0 0 0
M  V30 BEGIN ATOM
M  V30 1 O 3.6036 -3.3625 0.0 0
M  V30 2 C 2.6728 -2.9972 0.0 0
M  V30 3 N 1.9397 -3.6773 0.0 0
M  V30 4 C 2.598 -2.0 0.0 0 CFG=1
M  V30 5 C 0.9509 -3.5283 0.0 0
M  V30 6 C 2.2345 -4.6329 0.0 0
M  V30 7 N 3.4641 -1.5 0.0 0
M  V30 8 C 1.7718 -1.4366 0.0 0
M  V30 9 C 0.4509 -2.6623 0.0 0
M  V30 10 C 0.4509 -4.3943 0.0 0
M  V30 11 C 3.2094 -4.8554 0.0 0
M  V30 12 C 3.4641 -0.5 0.0 0 CFG=2
M  V30 13 C 0.8162 -1.7314 0.0 0
M  V30 14 C -0.549 -2.6623 0.0 0
M  V30 15 C -0.549 -4.3943 0.0 0
M  V30 16 O 3.8896 -4.1224 0.0 0
M  V30 17 O 3.5041 -5.811 0.0 0 CHG=-1
M  V30 18 C 2.598 0.0 0.0 0
M  V30 19 C 4.3301 0.0 0.0 0
M  V30 20 C -1.049 -3.5283 0.0 0
M  V30 21 O 2.598 1.0 0.0 0
M  V30 22 O 1.732 -0.5 0.0 0
M  V30 23 C 5.1961 -0.5 0.0 0
M  V30 24 C 0.866 0.0 0.0 0
M  V30 25 C 6.0621 0.0 0.0 0
M  V30 26 C 0.0 -0.5 0.0 0
M  V30 27 C 6.9282 -0.5 0.0 0
M  V30 28 C 6.0621 0.9999 0.0 0
M  V30 29 C 7.7942 0.0 0.0 0
M  V30 30 C 6.9282 1.4999 0.0 0
M  V30 31 C 7.7942 0.9999 0.0 0
M  V30 END ATOM
M  V30 BEGIN BOND
M  V30 1 2 1 2
M  V30 2 1 2 3
M  V30 3 1 4 2
M  V30 4 1 3 5
M  V30 5 1 3 6
M  V30 6 1 4 7 CFG=3
M  V30 7 1 4 8
M  V30 8 2 5 9
M  V30 9 1 5 10
M  V30 10 1 6 11
M  V30 11 1 12 7 CFG=3
M  V30 12 1 8 13
M  V30 13 1 9 14
M  V30 14 2 10 15
M  V30 15 2 11 16
M  V30 16 1 11 17
M  V30 17 1 12 18
M  V30 18 1 12 19
M  V30 19 2 14 20
M  V30 20 2 18 21
M  V30 21 1 18 22
M  V30 22 1 19 23
M  V30 23 1 22 24
M  V30 24 1 23 25
M  V30 25 1 24 26
M  V30 26 2 25 27
M  V30 27 1 25 28
M  V30 28 1 27 29
M  V30 29 2 28 30
M  V30 30 2 29 31
M  V30 31 1 9 13
M  V30 32 1 15 20
M  V30 33 1 30 31
M  V30 END BOND
M  V30 BEGIN COLLECTION
M  V30 MDLV30/STERAC1 ATOMS=(2 4 12)
M  V30 END COLLECTION
M  V30 END CTAB
M  END
>  <Molecule Name>


>  <status>
-

>  <cas>
86541-75-5

>  <name>
BENAZEPRIL

>  <ID>
643

>  <Smiles>
CCOC([C@H](CCc1ccccc1)N[C@@H](CCc(cccc1)c1N1CC([O-])=O)C1=O)=O

$$$$

Actelion Java MolfileCreator 2.0

  0  0  0  0  0  0              0 V3000
M  V30 BEGIN CTAB
M  V30 COUNTS 9 8 0 0 0
M  V30 BEGIN ATOM
M  V30 1 S 3.1471 1.299 0.0 0
M  V30 2 C 3.8971 0.0 0.0 0
M  V30 3 C 2.598 -0.75 0.0 0 CFG=2
M  V30 4 C 5.1961 0.75 0.0 0
M  V30 5 C 4.6471 -1.299 0.0 0
M  V30 6 N 2.598 -2.25 0.0 0
M  V30 7 C 1.299 0.0 0.0 0
M  V30 8 O 1.299 1.5 0.0 0
M  V30 9 O 0.0 -0.75 0.0 0 CHG=-1
M  V30 END ATOM
M  V30 BEGIN BOND
M  V30 1 1 1 2
M  V30 2 1 3 2
M  V30 3 1 2 4
M  V30 4 1 2 5
M  V30 5 1 3 6 CFG=3
M  V30 6 1 3 7
M  V30 7 2 7 8
M  V30 8 1 7 9
M  V30 END BOND
M  V30 BEGIN COLLECTION
M  V30 MDLV30/STERAC1 ATOMS=(1 3)
M  V30 END COLLECTION
M  V30 END CTAB
M  END
>  <Molecule Name>


>  <status>
-

>  <cas>
52-67-5

>  <name>
PENICILLAMINE

>  <ID>
644

>  <Smiles>
CC(C)(C(C([O-])=O)N)S

$$$$

Actelion Java MolfileCreator 2.0

  0  0  0  0  0  0              0 V3000
M  V30 BEGIN CTAB
M  V30 COUNTS 18 18 0 0 0
M  V30 BEGIN ATOM
M  V30 1 S 7.7942 0.9999 0.0 0
M  V30 2 O 7.2942 0.1339 0.0 0
M  V30 3 O 8.2942 1.866 0.0 0
M  V30 4 N 6.9282 1.4999 0.0 0
M  V30 5 C 8.6602 0.4999 0.0 0
M  V30 6 C 6.0621 0.9999 0.0 0
M  V30 7 C 5.1961 1.4999 0.0 0
M  V30 8 C 6.0621 0.0 0.0 0
M  V30 9 C 4.3301 0.9999 0.0 0
M  V30 10 C 5.1961 -0.5 0.0 0
M  V30 11 C 4.3301 0.0 0.0 0
M  V30 12 C 3.4641 -0.5 0.0 0 CFG=1
M  V30 13 O 3.4641 -1.5 0.0 0
M  V30 14 C 2.598 0.0 0.0 0
M  V30 15 N 1.732 -0.5 0.0 0
M  V30 16 C 0.866 0.0 0.0 0
M  V30 17 C 0.866 1.0 0.0 0
M  V30 18 C 0.0 -0.5 0.0 0
M  V30 END ATOM
M  V30 BEGIN BOND
M  V30 1 2 1 2
M  V30 2 2 1 3
M  V30 3 1 1 4
M  V30 4 1 1 5
M  V30 5 1 4 6
M  V30 6 2 6 7
M  V30 7 1 6 8
M  V30 8 1 7 9
M  V30 9 2 8 10
M  V30 10 2 9 11
M  V30 11 1 12 11
M  V30 12 1 12 13 CFG=1
M  V30 13 1 12 14
M  V30 14 1 14 15
M  V30 15 1 15 16
M  V30 16 1 16 17
M  V30 17 1 16 18
M  V30 18 1 10 11
M  V30 END BOND
M  V30 BEGIN COLLECTION
M  V30 MDLV30/STERAC1 ATOMS=(1 12)
M  V30 END COLLECTION
M  V30 END CTAB
M  END
>  <Molecule Name>


>  <status>
-

>  <cas>
3930-20-9

>  <name>
SOTALOL

>  <ID>
645

>  <Smiles>
CC(C)NCC(c(cc1)ccc1NS(C)(=O)=O)O

$$$$

Actelion Java MolfileCreator 2.0

  0  0  0  0  0  0              0 V3000
M  V30 BEGIN CTAB
M  V30 COUNTS 18 18 0 0 0
M  V30 BEGIN ATOM
M  V30 1 S 7.7942 0.9999 0.0 0
M  V30 2 O 7.2942 0.1339 0.0 0
M  V30 3 O 8.2942 1.866 0.0 0
M  V30 4 N 6.9282 1.4999 0.0 0
M  V30 5 C 8.6602 0.4999 0.0 0
M  V30 6 C 6.0621 0.9999 0.0 0
M  V30 7 C 5.1961 1.4999 0.0 0
M  V30 8 C 6.0621 0.0 0.0 0
M  V30 9 C 4.3301 0.9999 0.0 0
M  V30 10 C 5.1961 -0.5 0.0 0
M  V30 11 C 4.3301 0.0 0.0 0
M  V30 12 C 3.4641 -0.5 0.0 0 CFG=1
M  V30 13 O 3.4641 -1.5 0.0 0
M  V30 14 C 2.598 0.0 0.0 0
M  V30 15 N 1.732 -0.5 0.0 0
M  V30 16 C 0.866 0.0 0.0 0
M  V30 17 C 0.866 1.0 0.0 0
M  V30 18 C 0.0 -0.5 0.0 0
M  V30 END ATOM
M  V30 BEGIN BOND
M  V30 1 2 1 2
M  V30 2 2 1 3
M  V30 3 1 1 4
M  V30 4 1 1 5
M  V30 5 1 4 6
M  V30 6 2 6 7
M  V30 7 1 6 8
M  V30 8 1 7 9
M  V30 9 2 8 10
M  V30 10 2 9 11
M  V30 11 1 12 11
M  V30 12 1 12 13 CFG=1
M  V30 13 1 12 14
M  V30 14 1 14 15
M  V30 15 1 15 16
M  V30 16 1 16 17
M  V30 17 1 16 18
M  V30 18 1 10 11
M  V30 END BOND
M  V30 BEGIN COLLECTION
M  V30 MDLV30/STERAC1 ATOMS=(1 12)
M  V30 END COLLECTION
M  V30 END CTAB
M  END
>  <Molecule Name>


>  <status>
-

>  <cas>
3930-20-9

>  <name>
SOTALOL

>  <ID>
646

>  <Smiles>
CC(C)NCC(c(cc1)ccc1NS(C)(=O)=O)O

$$$$

Actelion Java MolfileCreator 2.0

  0  0  0  0  0  0              0 V3000
M  V30 BEGIN CTAB
M  V30 COUNTS 32 34 0 0 0
M  V30 BEGIN ATOM
M  V30 1 O 8.6602 1.5 0.0 0
M  V30 2 C 7.7942 1.0 0.0 0
M  V30 3 O 6.9282 1.4999 0.0 0 CHG=-1
M  V30 4 C 7.7942 0.0 0.0 0 CFG=1
M  V30 5 N 6.9282 -0.5 0.0 0
M  V30 6 C 8.6602 -0.4999 0.0 0
M  V30 7 C 6.0621 0.0 0.0 0
M  V30 8 C 6.9282 -1.4999 0.0 0
M  V30 9 C 8.6602 -1.4999 0.0 0
M  V30 10 O 6.0621 0.9999 0.0 0
M  V30 11 C 5.1961 -0.5 0.0 0 CFG=1
M  V30 12 C 7.7942 -2.0 0.0 0
M  V30 13 C 9.5262 -1.9999 0.0 0
M  V30 14 N 4.3301 0.0 0.0 0
M  V30 15 C 5.1961 -1.4999 0.0 0
M  V30 16 C 7.7942 -3.0 0.0 0
M  V30 17 C 9.5262 -2.9999 0.0 0
M  V30 18 C 3.4641 -0.5 0.0 0 CFG=2
M  V30 19 C 8.6602 -3.4999 0.0 0
M  V30 20 C 2.598 0.0 0.0 0
M  V30 21 C 3.4641 -1.5 0.0 0
M  V30 22 O 2.598 1.0 0.0 0
M  V30 23 O 1.732 -0.5 0.0 0
M  V30 24 C 2.598 -2.0 0.0 0
M  V30 25 C 0.866 0.0 0.0 0
M  V30 26 C 2.598 -3.0 0.0 0
M  V30 27 C 0.0 -0.5 0.0 0
M  V30 28 C 1.732 -3.4999 0.0 0
M  V30 29 C 3.4641 -3.5 0.0 0
M  V30 30 C 1.732 -4.5 0.0 0
M  V30 31 C 3.4641 -4.5 0.0 0
M  V30 32 C 2.598 -5.0 0.0 0
M  V30 END ATOM
M  V30 BEGIN BOND
M  V30 1 2 1 2
M  V30 2 1 2 3
M  V30 3 1 4 2 CFG=3
M  V30 4 1 4 5
M  V30 5 1 4 6
M  V30 6 1 5 7
M  V30 7 1 5 8
M  V30 8 1 6 9
M  V30 9 2 7 10
M  V30 10 1 11 7
M  V30 11 1 8 12
M  V30 12 1 9 13
M  V30 13 1 11 14 CFG=3
M  V30 14 1 11 15
M  V30 15 1 12 16
M  V30 16 2 13 17
M  V30 17 1 18 14 CFG=1
M  V30 18 2 16 19
M  V30 19 1 18 20
M  V30 20 1 18 21
M  V30 21 2 20 22
M  V30 22 1 20 23
M  V30 23 1 21 24
M  V30 24 1 23 25
M  V30 25 1 24 26
M  V30 26 1 25 27
M  V30 27 2 26 28
M  V30 28 1 26 29
M  V30 29 1 28 30
M  V30 30 2 29 31
M  V30 31 2 30 32
M  V30 32 2 9 12
M  V30 33 1 17 19
M  V30 34 1 31 32
M  V30 END BOND
M  V30 BEGIN COLLECTION
M  V30 MDLV30/STERAC1 ATOMS=(3 4 11 18)
M  V30 END COLLECTION
M  V30 END CTAB
M  END
>  <Molecule Name>


>  <status>
-

>  <cas>
85441-61-8

>  <name>
QUINAPRIL

>  <ID>
647

>  <Smiles>
CCOC([C@H](CCc1ccccc1)N[C@@H](C)C(N(Cc1c(C2)cccc1)[C@@H]2C([O-])=O)=O)=O

$$$$

Actelion Java MolfileCreator 2.0

  0  0  0  0  0  0              0 V3000
M  V30 BEGIN CTAB
M  V30 COUNTS 30 31 0 0 0
M  V30 BEGIN ATOM
M  V30 1 O 11.6913 4.5 0.0 0
M  V30 2 C 10.3923 3.75 0.0 0
M  V30 3 O 10.3923 2.25 0.0 0
M  V30 4 C 9.0932 4.5 0.0 0 CFG=2
M  V30 5 C 11.6913 1.4999 0.0 0 CFG=2
M  V30 6 C 9.0932 6.0 0.0 0
M  V30 7 C 7.7942 3.7499 0.0 0
M  V30 8 C 11.6913 0.0 0.0 0 CFG=1
M  V30 9 C 12.9903 2.2499 0.0 0
M  V30 10 C 7.7942 6.75 0.0 0
M  V30 11 C 12.9903 -0.75 0.0 0
M  V30 12 C 10.3923 -0.75 0.0 0 CFG=2
M  V30 13 C 14.2894 1.5 0.0 0 CFG=1
M  V30 14 C 12.9903 -2.25 0.0 0
M  V30 15 C 14.2894 0.0 0.0 0
M  V30 16 C 10.3923 -2.25 0.0 0 CFG=2
M  V30 17 C 9.0932 0.0 0.0 0
M  V30 18 O 15.5884 2.25 0.0 0
M  V30 19 C 11.6913 -3.0 0.0 0
M  V30 20 C 9.0932 -2.9999 0.0 0
M  V30 21 C 7.7942 -0.75 0.0 0
M  V30 22 C 6.4951 0.0 0.0 0 CFG=1
M  V30 23 O 6.4951 1.5 0.0 0
M  V30 24 C 5.1961 -0.75 0.0 0
M  V30 25 C 3.8971 0.0 0.0 0 CFG=1
M  V30 26 O 3.8971 1.5 0.0 0
M  V30 27 C 2.598 -0.75 0.0 0
M  V30 28 C 1.299 0.0 0.0 0
M  V30 29 O 1.299 1.5 0.0 0
M  V30 30 O 0.0 -0.75 0.0 0 CHG=-1
M  V30 END ATOM
M  V30 BEGIN BOND
M  V30 1 2 1 2
M  V30 2 1 2 3
M  V30 3 1 4 2
M  V30 4 1 5 3 CFG=1
M  V30 5 1 4 6
M  V30 6 1 4 7 CFG=1
M  V30 7 1 8 5
M  V30 8 1 5 9
M  V30 9 1 6 10
M  V30 10 1 8 11 CFG=1
M  V30 11 1 12 8
M  V30 12 1 13 9
M  V30 13 1 11 14
M  V30 14 2 11 15
M  V30 15 1 16 12
M  V30 16 1 12 17 CFG=3
M  V30 17 1 13 18 CFG=3
M  V30 18 2 14 19
M  V30 19 1 16 20 CFG=3
M  V30 20 1 17 21
M  V30 21 1 22 21
M  V30 22 1 22 23 CFG=3
M  V30 23 1 22 24
M  V30 24 1 25 24
M  V30 25 1 25 26 CFG=3
M  V30 26 1 25 27
M  V30 27 1 27 28
M  V30 28 2 28 29
M  V30 29 1 28 30
M  V30 30 1 13 15
M  V30 31 1 16 19
M  V30 END BOND
M  V30 BEGIN COLLECTION
M  V30 MDLV30/STERAC1 ATOMS=(8 4 5 8 12 13 16 22 25)
M  V30 END COLLECTION
M  V30 END CTAB
M  END
>  <Molecule Name>


>  <status>
-

>  <cas>
81093-37-0

>  <name>
PRAVASTATIN

>  <ID>
648

>  <Smiles>
CC[C@H](C)C(O[C@@H](C1)[C@H]([C@@H](CC[C@H](C[C@H](CC([O-])=O)O)O)[C@@H](C)C=C2)C2=C[C@H]1O)=O

$$$$

Actelion Java MolfileCreator 2.0

  0  0  0  0  0  0              0 V3000
M  V30 BEGIN CTAB
M  V30 COUNTS 30 32 0 0 0
M  V30 BEGIN ATOM
M  V30 1 O 9.0007 1.1939 0.0 0
M  V30 2 C 8.0496 0.8848 0.0 0
M  V30 3 O 7.3065 1.554 0.0 0 CHG=-1
M  V30 4 C 7.8417 -0.0932 0.0 0 CFG=1
M  V30 5 N 6.9282 -0.5 0.0 0
M  V30 6 C 8.5108 -0.8364 0.0 0
M  V30 7 C 6.0621 0.0 0.0 0
M  V30 8 C 7.0327 -1.4945 0.0 0 CFG=2
M  V30 9 C 8.0108 -1.7024 0.0 0 CFG=1
M  V30 10 O 6.0621 0.9999 0.0 0
M  V30 11 C 5.1961 -0.5 0.0 0 CFG=1
M  V30 12 C 6.5327 -2.3605 0.0 0
M  V30 13 C 8.1154 -2.6969 0.0 0
M  V30 14 N 4.3301 0.0 0.0 0
M  V30 15 C 5.1961 -1.4999 0.0 0
M  V30 16 C 7.2018 -3.1036 0.0 0
M  V30 17 C 3.4641 -0.5 0.0 0 CFG=2
M  V30 18 C 2.598 0.0 0.0 0
M  V30 19 C 3.4641 -1.5 0.0 0
M  V30 20 O 2.598 1.0 0.0 0
M  V30 21 O 1.732 -0.5 0.0 0
M  V30 22 C 2.598 -2.0 0.0 0
M  V30 23 C 0.866 0.0 0.0 0
M  V30 24 C 2.598 -3.0 0.0 0
M  V30 25 C 0.0 -0.5 0.0 0
M  V30 26 C 1.732 -3.4999 0.0 0
M  V30 27 C 3.4641 -3.5 0.0 0
M  V30 28 C 1.732 -4.5 0.0 0
M  V30 29 C 3.4641 -4.5 0.0 0
M  V30 30 C 2.598 -5.0 0.0 0
M  V30 END ATOM
M  V30 BEGIN BOND
M  V30 1 2 1 2
M  V30 2 1 2 3
M  V30 3 1 4 2 CFG=3
M  V30 4 1 4 5
M  V30 5 1 4 6
M  V30 6 1 5 7
M  V30 7 1 8 5 CFG=3
M  V30 8 1 9 6 CFG=3
M  V30 9 2 7 10
M  V30 10 1 11 7
M  V30 11 1 8 12
M  V30 12 1 9 13
M  V30 13 1 11 14 CFG=3
M  V30 14 1 11 15
M  V30 15 1 12 16
M  V30 16 1 17 14 CFG=1
M  V30 17 1 17 18
M  V30 18 1 17 19
M  V30 19 2 18 20
M  V30 20 1 18 21
M  V30 21 1 19 22
M  V30 22 1 21 23
M  V30 23 1 22 24
M  V30 24 1 23 25
M  V30 25 2 24 26
M  V30 26 1 24 27
M  V30 27 1 26 28
M  V30 28 2 27 29
M  V30 29 2 28 30
M  V30 30 1 8 9
M  V30 31 1 13 16
M  V30 32 1 29 30
M  V30 END BOND
M  V30 BEGIN COLLECTION
M  V30 MDLV30/STERAC1 ATOMS=(5 4 8 9 11 17)
M  V30 END COLLECTION
M  V30 END CTAB
M  END
>  <Molecule Name>


>  <status>
-

>  <cas>
87333-19-5

>  <name>
RAMIPRIL

>  <ID>
649

>  <Smiles>
CCOC([C@H](CCc1ccccc1)N[C@@H](C)C(N([C@@H](CCC1)[C@@H]1C1)[C@@H]1C([O-])=O)=O)=O

$$$$

Actelion Java MolfileCreator 2.0

  0  0  0  0  0  0              0 V3000
M  V30 BEGIN CTAB
M  V30 COUNTS 22 24 0 0 0
M  V30 BEGIN ATOM
M  V30 1 Cl 2.1217 2.5616 0.0 0
M  V30 2 C 3.0773 2.2668 0.0 0
M  V30 3 C 3.2998 1.2919 0.0 0
M  V30 4 C 3.8103 2.947 0.0 0
M  V30 5 C 4.2553 0.9972 0.0 0
M  V30 6 C 4.7659 2.6523 0.0 0
M  V30 7 N 4.3301 0.0 0.0 0
M  V30 8 C 4.9884 1.6773 0.0 0
M  V30 9 C 5.1563 -0.5633 0.0 0
M  V30 10 C 3.4641 -0.5 0.0 0
M  V30 11 C 5.9772 1.5283 0.0 0
M  V30 12 C 6.1119 -0.2685 0.0 0
M  V30 13 C 4.9338 -1.5382 0.0 0
M  V30 14 C 2.598 0.0 0.0 0
M  V30 15 C 6.4772 0.6623 0.0 0
M  V30 16 C 6.8449 -0.9487 0.0 0
M  V30 17 C 5.6668 -2.2184 0.0 0
M  V30 18 C 1.732 -0.5 0.0 0
M  V30 19 C 6.6224 -1.9236 0.0 0
M  V30 20 N 0.866 0.0 0.0 0
M  V30 21 C 0.866 1.0 0.0 0
M  V30 22 C 0.0 -0.5 0.0 0
M  V30 END ATOM
M  V30 BEGIN BOND
M  V30 1 1 1 2
M  V30 2 2 2 3
M  V30 3 1 2 4
M  V30 4 1 3 5
M  V30 5 2 4 6
M  V30 6 1 5 7
M  V30 7 2 5 8
M  V30 8 1 7 9
M  V30 9 1 7 10
M  V30 10 1 8 11
M  V30 11 2 9 12
M  V30 12 1 9 13
M  V30 13 1 10 14
M  V30 14 1 11 15
M  V30 15 1 12 16
M  V30 16 2 13 17
M  V30 17 1 14 18
M  V30 18 2 16 19
M  V30 19 1 18 20
M  V30 20 1 20 21
M  V30 21 1 20 22
M  V30 22 1 6 8
M  V30 23 1 12 15
M  V30 24 1 17 19
M  V30 END BOND
M  V30 END CTAB
M  END
>  <Molecule Name>


>  <status>
-

>  <cas>
303-49-1

>  <name>
CLOMIPRAMINE

>  <ID>
650

>  <Smiles>
CN(C)CCCN(c1c(CC2)cccc1)c1c2ccc(Cl)c1

$$$$

Actelion Java MolfileCreator 2.0

  0  0  0  0  0  0              0 V3000
M  V30 BEGIN CTAB
M  V30 COUNTS 22 22 0 0 0
M  V30 BEGIN ATOM
M  V30 1 O 10.3923 1.4999 0.0 0
M  V30 2 C 9.5262 0.9999 0.0 0
M  V30 3 O 8.6602 1.4999 0.0 0
M  V30 4 C 9.5262 0.0 0.0 0
M  V30 5 C 7.7942 0.9999 0.0 0
M  V30 6 C 6.9282 1.4999 0.0 0
M  V30 7 C 7.7942 0.0 0.0 0
M  V30 8 C 6.0621 0.9999 0.0 0
M  V30 9 C 6.9282 2.4999 0.0 0
M  V30 10 C 6.9282 -0.5 0.0 0
M  V30 11 C 8.6602 -0.5 0.0 0
M  V30 12 C 6.0621 0.0 0.0 0
M  V30 13 C 5.1961 1.5 0.0 0
M  V30 14 O 5.1961 -0.5 0.0 0
M  V30 15 C 4.3301 0.0 0.0 0
M  V30 16 C 3.4641 -0.5 0.0 0 CFG=1
M  V30 17 O 3.4641 -1.5 0.0 0
M  V30 18 C 2.598 0.0 0.0 0
M  V30 19 N 1.732 -0.5 0.0 0
M  V30 20 C 0.866 0.0 0.0 0
M  V30 21 C 0.866 1.0 0.0 0
M  V30 22 C 0.0 -0.5 0.0 0
M  V30 END ATOM
M  V30 BEGIN BOND
M  V30 1 2 1 2
M  V30 2 1 2 3
M  V30 3 1 2 4
M  V30 4 1 3 5
M  V30 5 2 5 6
M  V30 6 1 5 7
M  V30 7 1 6 8
M  V30 8 1 6 9
M  V30 9 2 7 10
M  V30 10 1 7 11
M  V30 11 2 8 12
M  V30 12 1 8 13
M  V30 13 1 12 14
M  V30 14 1 14 15
M  V30 15 1 16 15
M  V30 16 1 16 17 CFG=1
M  V30 17 1 16 18
M  V30 18 1 18 19
M  V30 19 1 19 20
M  V30 20 1 20 21
M  V30 21 1 20 22
M  V30 22 1 10 12
M  V30 END BOND
M  V30 BEGIN COLLECTION
M  V30 MDLV30/STERAC1 ATOMS=(1 16)
M  V30 END COLLECTION
M  V30 END CTAB
M  END
>  <Molecule Name>


>  <status>
DISCONTINUED

>  <cas>
22664-55-7

>  <name>
METIPRANOLOL

>  <ID>
651

>  <Smiles>
CC(C)NCC(COc(cc1C)c(C)c(C)c1OC(C)=O)O

$$$$

Actelion Java MolfileCreator 2.0

  0  0  0  0  0  0              0 V3000
M  V30 BEGIN CTAB
M  V30 COUNTS 23 25 0 0 0
M  V30 BEGIN ATOM
M  V30 1 O 0.0 1.5 0.0 0
M  V30 2 C 0.866 0.9999 0.0 0
M  V30 3 N 1.732 1.4999 0.0 0
M  V30 4 C 0.866 0.0 0.0 0
M  V30 5 C 1.732 2.4999 0.0 0
M  V30 6 C 2.598 0.9999 0.0 0
M  V30 7 C 0.0 -0.5 0.0 0
M  V30 8 N -0.9135 -0.0932 0.0 0
M  V30 9 C -0.1045 -1.4945 0.0 0
M  V30 10 C -1.5826 -0.8364 0.0 0
M  V30 11 C -1.2225 0.8577 0.0 0
M  V30 12 N -1.0826 -1.7024 0.0 0
M  V30 13 C 0.6386 -2.1636 0.0 0
M  V30 14 C -2.5608 -0.6284 0.0 0
M  V30 15 C -2.2007 1.0657 0.0 0
M  V30 16 C 0.4307 -3.1418 0.0 0
M  V30 17 C 1.5896 -1.8546 0.0 0
M  V30 18 C -2.8698 0.3225 0.0 0
M  V30 19 C -2.5097 2.0167 0.0 0
M  V30 20 C 1.1738 -3.8109 0.0 0
M  V30 21 C 2.3328 -2.5237 0.0 0
M  V30 22 C 2.1249 -3.5019 0.0 0
M  V30 23 C 2.868 -4.171 0.0 0
M  V30 END ATOM
M  V30 BEGIN BOND
M  V30 1 2 1 2
M  V30 2 1 2 3
M  V30 3 1 2 4
M  V30 4 1 3 5
M  V30 5 1 3 6
M  V30 6 1 4 7
M  V30 7 1 7 8
M  V30 8 2 7 9
M  V30 9 1 8 10
M  V30 10 1 8 11
M  V30 11 1 9 12
M  V30 12 1 9 13
M  V30 13 1 10 14
M  V30 14 2 11 15
M  V30 15 2 13 16
M  V30 16 1 13 17
M  V30 17 2 14 18
M  V30 18 1 15 19
M  V30 19 1 16 20
M  V30 20 2 17 21
M  V30 21 2 20 22
M  V30 22 1 22 23
M  V30 23 2 10 12
M  V30 24 1 15 18
M  V30 25 1 21 22
M  V30 END BOND
M  V30 END CTAB
M  END
>  <Molecule Name>


>  <status>
-

>  <cas>
82626-48-0

>  <name>
ZOLPIDEM

>  <ID>
652

>  <Smiles>
Cc(cc1)ccc1-c1c(CC(N(C)C)=O)n(cc(C)cc2)c2n1

$$$$

Actelion Java MolfileCreator 2.0

  0  0  0  0  0  0              0 V3000
M  V30 BEGIN CTAB
M  V30 COUNTS 39 41 0 0 0
M  V30 BEGIN ATOM
M  V30 1 P 7.7942 -0.75 0.0 0 CFG=2
M  V30 2 O 9.0932 -1.5 0.0 0
M  V30 3 O 6.4951 0.0 0.0 0
M  V30 4 C 7.7942 -2.25 0.0 0
M  V30 5 C 9.0932 0.0 0.0 0
M  V30 6 C 6.4951 1.5 0.0 0 CFG=2
M  V30 7 C 6.4951 -2.9999 0.0 0
M  V30 8 C 9.0932 1.4999 0.0 0
M  V30 9 O 7.7942 2.25 0.0 0
M  V30 10 C 5.1961 2.25 0.0 0
M  V30 11 O 5.1961 -2.2499 0.0 0
M  V30 12 N 6.4951 -4.5 0.0 0
M  V30 13 C 10.3923 2.2499 0.0 0
M  V30 14 C 7.7942 3.75 0.0 0
M  V30 15 C 5.1961 3.75 0.0 0
M  V30 16 C 3.8971 1.5 0.0 0
M  V30 17 C 7.7087 -5.3816 0.0 0 CFG=2
M  V30 18 C 5.2816 -5.3816 0.0 0
M  V30 19 C 10.3923 3.75 0.0 0
M  V30 20 O 6.4951 4.5 0.0 0
M  V30 21 C 9.0932 4.5 0.0 0
M  V30 22 C 9.1353 -4.9181 0.0 0
M  V30 23 C 7.2451 -6.8082 0.0 0
M  V30 24 C 5.7451 -6.8082 0.0 0 CFG=1
M  V30 25 C 11.6913 4.4999 0.0 0
M  V30 26 C 9.0932 6.0 0.0 0
M  V30 27 O 9.4471 -3.4509 0.0 0
M  V30 28 O 10.25 -5.9218 0.0 0 CHG=-1
M  V30 29 C 4.8635 -8.0217 0.0 0
M  V30 30 C 11.6913 5.9999 0.0 0
M  V30 31 C 12.9903 3.7499 0.0 0
M  V30 32 C 5.4736 -9.3921 0.0 0
M  V30 33 C 3.3717 -7.8649 0.0 0
M  V30 34 C 12.9903 6.7499 0.0 0
M  V30 35 C 14.2894 4.4999 0.0 0
M  V30 36 C 4.5919 -10.6056 0.0 0
M  V30 37 C 2.49 -9.0785 0.0 0
M  V30 38 C 14.2894 5.9999 0.0 0
M  V30 39 C 3.1001 -10.4488 0.0 0
M  V30 END ATOM
M  V30 BEGIN BOND
M  V30 1 2 1 2
M  V30 2 1 1 3 CFG=1
M  V30 3 1 1 4
M  V30 4 1 1 5
M  V30 5 1 6 3 CFG=1
M  V30 6 1 4 7
M  V30 7 1 5 8
M  V30 8 1 6 9
M  V30 9 1 6 10
M  V30 10 2 7 11
M  V30 11 1 7 12
M  V30 12 1 8 13
M  V30 13 1 9 14
M  V30 14 1 10 15
M  V30 15 1 10 16
M  V30 16 1 17 12
M  V30 17 1 12 18
M  V30 18 1 13 19
M  V30 19 2 14 20
M  V30 20 1 14 21
M  V30 21 1 17 22 CFG=3
M  V30 22 1 17 23
M  V30 23 1 24 18
M  V30 24 1 19 25
M  V30 25 1 21 26
M  V30 26 2 22 27
M  V30 27 1 22 28
M  V30 28 1 24 29 CFG=1
M  V30 29 2 25 30
M  V30 30 1 25 31
M  V30 31 1 29 32
M  V30 32 1 29 33
M  V30 33 1 30 34
M  V30 34 2 31 35
M  V30 35 1 32 36
M  V30 36 1 33 37
M  V30 37 2 34 38
M  V30 38 1 36 39
M  V30 39 1 23 24
M  V30 40 1 35 38
M  V30 41 1 37 39
M  V30 END BOND
M  V30 BEGIN COLLECTION
M  V30 MDLV30/STERAC1 ATOMS=(4 1 6 17 24)
M  V30 END COLLECTION
M  V30 END CTAB
M  END
>  <Molecule Name>


>  <status>
-

>  <cas>
98048-97-6

>  <name>
FOSINOPRIL

>  <ID>
653

>  <Smiles>
CCC(O[C@H](C(C)C)O[P@](CCCCc1ccccc1)(CC(N(C[C@@H](C1)C2CCCCC2)[C@@H]1C([O-])=O)=O)=O)=O

$$$$

Actelion Java MolfileCreator 2.0

  0  0  0  0  0  0              0 V3000
M  V30 BEGIN CTAB
M  V30 COUNTS 15 15 0 0 0
M  V30 BEGIN ATOM
M  V30 1 N 2.598 0.0 0.0 0
M  V30 2 C 1.732 -0.5 0.0 0
M  V30 3 C 3.4641 -0.4999 0.0 0
M  V30 4 N 1.732 -1.5 0.0 0
M  V30 5 N 0.866 0.0 0.0 0
M  V30 6 N 3.4641 -1.4999 0.0 0
M  V30 7 N 4.3301 0.0 0.0 0
M  V30 8 C 2.598 -1.9999 0.0 0
M  V30 9 C 0.866 1.0 0.0 0
M  V30 10 C 0.0 -0.5 0.0 0
M  V30 11 C 5.1961 -0.4999 0.0 0
M  V30 12 C 4.3301 1.0 0.0 0
M  V30 13 N 2.598 -2.9999 0.0 0
M  V30 14 C 1.732 -3.5 0.0 0
M  V30 15 C 3.4641 -3.4999 0.0 0
M  V30 END ATOM
M  V30 BEGIN BOND
M  V30 1 2 1 2
M  V30 2 1 1 3
M  V30 3 1 2 4
M  V30 4 1 2 5
M  V30 5 2 3 6
M  V30 6 1 3 7
M  V30 7 2 4 8
M  V30 8 1 5 9
M  V30 9 1 5 10
M  V30 10 1 7 11
M  V30 11 1 7 12
M  V30 12 1 8 13
M  V30 13 1 13 14
M  V30 14 1 13 15
M  V30 15 1 6 8
M  V30 END BOND
M  V30 END CTAB
M  END
>  <Molecule Name>


>  <status>
DISCONTINUED

>  <cas>
645-05-6

>  <name>
ALTRETAMINE

>  <ID>
654

>  <Smiles>
CN(C)c1nc(N(C)C)nc(N(C)C)n1

$$$$

Actelion Java MolfileCreator 2.0

  0  0  0  0  0  0              0 V3000
M  V30 BEGIN CTAB
M  V30 COUNTS 19 21 0 0 0
M  V30 BEGIN ATOM
M  V30 1 O 1.8365 -1.4945 0.0 0
M  V30 2 C 2.8147 -1.7024 0.0 0 CFG=2
M  V30 3 C 1.732 -0.5 0.0 0 CFG=2
M  V30 4 N 3.2214 -2.6159 0.0 0
M  V30 5 C 3.3147 -0.8364 0.0 0 CFG=2
M  V30 6 C 2.6455 -0.0932 0.0 0 CFG=1
M  V30 7 C 0.866 0.0 0.0 0
M  V30 8 C 2.7214 -3.482 0.0 0
M  V30 9 C 4.1996 -2.8238 0.0 0
M  V30 10 O 4.3092 -0.7318 0.0 0
M  V30 11 O 2.8535 0.8848 0.0 0
M  V30 12 O 0.0 -0.5 0.0 0
M  V30 13 N 1.7433 -3.6899 0.0 0
M  V30 14 C 3.3905 -4.2251 0.0 0
M  V30 15 N 4.3041 -3.8184 0.0 0
M  V30 16 C 1.4342 -4.6409 0.0 0
M  V30 17 C 3.0815 -5.1762 0.0 0
M  V30 18 N 2.1034 -5.3841 0.0 0
M  V30 19 N 3.7507 -5.9193 0.0 0
M  V30 END ATOM
M  V30 BEGIN BOND
M  V30 1 1 2 1
M  V30 2 1 3 1
M  V30 3 1 2 4 CFG=1
M  V30 4 1 5 2
M  V30 5 1 6 3
M  V30 6 1 3 7 CFG=1
M  V30 7 1 4 8
M  V30 8 1 4 9
M  V30 9 1 5 10 CFG=3
M  V30 10 1 6 11 CFG=3
M  V30 11 1 7 12
M  V30 12 2 8 13
M  V30 13 1 8 14
M  V30 14 2 9 15
M  V30 15 1 13 16
M  V30 16 2 14 17
M  V30 17 2 16 18
M  V30 18 1 17 19
M  V30 19 1 5 6
M  V30 20 1 14 15
M  V30 21 1 17 18
M  V30 END BOND
M  V30 BEGIN COLLECTION
M  V30 MDLV30/STERAC1 ATOMS=(4 2 3 5 6)
M  V30 END COLLECTION
M  V30 END CTAB
M  END
>  <Molecule Name>


>  <status>
-

>  <cas>
58-61-7

>  <name>
ADENOSINE

>  <ID>
655

>  <Smiles>
Nc1c2ncn([C@H]([C@H]3O)O[C@@H](CO)[C@@H]3O)c2ncn1

$$$$

Actelion Java MolfileCreator 2.0

  0  0  0  0  0  0              0 V3000
M  V30 BEGIN CTAB
M  V30 COUNTS 22 23 0 0 0
M  V30 BEGIN ATOM
M  V30 1 O 6.9282 -0.5 0.0 0
M  V30 2 C 6.0621 0.0 0.0 0
M  V30 3 C 6.0621 0.9999 0.0 0
M  V30 4 C 5.1961 -0.5 0.0 0
M  V30 5 O 6.9282 1.4999 0.0 0
M  V30 6 C 5.1961 1.4999 0.0 0
M  V30 7 C 4.3301 0.0 0.0 0
M  V30 8 C 4.3301 1.0 0.0 0
M  V30 9 C 3.4641 -0.5 0.0 0
M  V30 10 C 2.598 0.0 0.0 0 CFG=1
M  V30 11 C 1.732 -0.5 0.0 0 CFG=1
M  V30 12 C 2.598 1.0 0.0 0
M  V30 13 C 0.866 0.0 0.0 0
M  V30 14 C 1.732 -1.5 0.0 0
M  V30 15 C 0.0 -0.5 0.0 0
M  V30 16 C -0.866 0.0 0.0 0
M  V30 17 C 0.0 -1.4999 0.0 0
M  V30 18 C -1.732 -0.4999 0.0 0
M  V30 19 C -0.866 -1.9999 0.0 0
M  V30 20 O -2.598 0.0 0.0 0
M  V30 21 C -1.732 -1.4999 0.0 0
M  V30 22 O -2.598 -1.9999 0.0 0
M  V30 END ATOM
M  V30 BEGIN BOND
M  V30 1 1 1 2
M  V30 2 2 2 3
M  V30 3 1 2 4
M  V30 4 1 3 5
M  V30 5 1 3 6
M  V30 6 2 4 7
M  V30 7 2 6 8
M  V30 8 1 7 9
M  V30 9 1 10 9
M  V30 10 1 11 10
M  V30 11 1 10 12 CFG=1
M  V30 12 1 11 13
M  V30 13 1 11 14 CFG=3
M  V30 14 1 13 15
M  V30 15 2 15 16
M  V30 16 1 15 17
M  V30 17 1 16 18
M  V30 18 2 17 19
M  V30 19 1 18 20
M  V30 20 2 18 21
M  V30 21 1 21 22
M  V30 22 1 7 8
M  V30 23 1 19 21
M  V30 END BOND
M  V30 BEGIN COLLECTION
M  V30 MDLV30/STEABS ATOMS=(2 10 11)
M  V30 END COLLECTION
M  V30 END CTAB
M  END
>  <Molecule Name>


>  <status>
DISCONTINUED

>  <cas>
27686-84-6

>  <name>
MASOPROCOL

>  <ID>
656

>  <Smiles>
C[C@H](Cc(cc1)cc(O)c1O)[C@@H](C)Cc(cc1)cc(O)c1O

$$$$

Actelion Java MolfileCreator 2.0

  0  0  0  0  0  0              0 V3000
M  V30 BEGIN CTAB
M  V30 COUNTS 74 79 0 0 0
M  V30 BEGIN ATOM
M  V30 1 O 6.9282 -1.4999 0.0 0
M  V30 2 C 6.9282 -0.5 0.0 0
M  V30 3 O 7.7942 0.0 0.0 0
M  V30 4 C 6.0621 0.0 0.0 0
M  V30 5 C 7.7942 1.0 0.0 0
M  V30 6 C 5.1961 -0.5 0.0 0
M  V30 7 C 8.6602 1.5 0.0 0
M  V30 8 C 4.3301 0.0 0.0 0
M  V30 9 C 8.6602 2.4999 0.0 0
M  V30 10 O 4.3301 1.0 0.0 0
M  V30 11 O 3.4641 -0.5 0.0 0
M  V30 12 N 9.5262 3.0 0.0 0 CHG=1 CFG=2
M  V30 13 C 2.598 0.0 0.0 0
M  V30 14 C 9.5262 4.0 0.0 0 CFG=1
M  V30 15 C 10.3923 2.5 0.0 0
M  V30 16 C 9.5262 2.0 0.0 0
M  V30 17 C 1.732 -0.5 0.0 0
M  V30 18 C 10.3923 4.5 0.0 0
M  V30 19 C 8.6602 4.4999 0.0 0
M  V30 20 C 11.2583 3.0 0.0 0
M  V30 21 C 0.866 0.0 0.0 0
M  V30 22 C 10.3923 5.5 0.0 0
M  V30 23 C 11.2583 4.0 0.0 0
M  V30 24 C 7.7942 4.0 0.0 0
M  V30 25 N 0.0 -0.5 0.0 0 CHG=1 CFG=2
M  V30 26 O 9.5262 6.0 0.0 0
M  V30 27 C 11.2583 6.0 0.0 0
M  V30 28 C 12.1243 4.5 0.0 0
M  V30 29 C 6.9282 4.4999 0.0 0
M  V30 30 C 7.7942 2.9999 0.0 0
M  V30 31 C -0.866 0.0 0.0 0 CFG=2
M  V30 32 C 0.0 -1.4999 0.0 0
M  V30 33 C 0.866 -1.0 0.0 0
M  V30 34 C 8.6602 5.5 0.0 0
M  V30 35 O 11.2583 7.0 0.0 0
M  V30 36 C 12.1243 5.5 0.0 0
M  V30 37 C 6.0621 3.9999 0.0 0
M  V30 38 C 6.9282 2.5 0.0 0
M  V30 39 C -1.732 -0.4999 0.0 0
M  V30 40 C -0.866 1.0 0.0 0
M  V30 41 C -0.866 -1.9999 0.0 0
M  V30 42 C 12.1243 7.5 0.0 0
M  V30 43 O 12.9903 6.0 0.0 0
M  V30 44 O 5.1961 4.5 0.0 0
M  V30 45 C 6.0621 3.0 0.0 0
M  V30 46 O 6.9282 1.4999 0.0 0
M  V30 47 C -2.598 0.0 0.0 0
M  V30 48 C -1.732 -1.4999 0.0 0
M  V30 49 C 0.0 1.5 0.0 0
M  V30 50 C 13.8564 5.5 0.0 0
M  V30 51 C 5.1961 5.5 0.0 0
M  V30 52 O 5.1961 2.4999 0.0 0
M  V30 53 C 6.0621 0.9999 0.0 0
M  V30 54 O -2.598 1.0 0.0 0
M  V30 55 C -3.4641 -0.4999 0.0 0
M  V30 56 C -2.598 -1.9999 0.0 0
M  V30 57 C 0.0 2.5 0.0 0
M  V30 58 C 0.866 1.0 0.0 0
M  V30 59 C 5.1961 1.4999 0.0 0
M  V30 60 C -3.4641 1.5 0.0 0
M  V30 61 O -4.3301 0.0 0.0 0
M  V30 62 C -3.4641 -1.4999 0.0 0
M  V30 63 C 0.866 2.9999 0.0 0
M  V30 64 C 1.732 1.4999 0.0 0
M  V30 65 C -5.1961 -0.4999 0.0 0
M  V30 66 O -4.3301 -1.9999 0.0 0
M  V30 67 O 0.866 3.9999 0.0 0
M  V30 68 C 1.732 2.5 0.0 0
M  V30 69 O 2.598 1.0 0.0 0
M  V30 70 C -4.3301 -2.9999 0.0 0
M  V30 71 C 1.732 4.4999 0.0 0
M  V30 72 O 2.598 2.9999 0.0 0
M  V30 73 C 3.4641 1.5 0.0 0
M  V30 74 C 3.4641 2.4999 0.0 0
M  V30 END ATOM
M  V30 BEGIN BOND
M  V30 1 2 1 2
M  V30 2 1 2 3
M  V30 3 1 2 4
M  V30 4 1 3 5
M  V30 5 1 4 6
M  V30 6 1 5 7
M  V30 7 1 6 8
M  V30 8 1 7 9
M  V30 9 2 8 10
M  V30 10 1 8 11
M  V30 11 1 12 9
M  V30 12 1 11 13
M  V30 13 1 14 12
M  V30 14 1 12 15
M  V30 15 1 12 16 CFG=1
M  V30 16 1 13 17
M  V30 17 1 14 18
M  V30 18 1 14 19 CFG=3
M  V30 19 1 15 20
M  V30 20 1 17 21
M  V30 21 2 18 22
M  V30 22 1 18 23
M  V30 23 1 19 24
M  V30 24 1 25 21
M  V30 25 1 22 26
M  V30 26 1 22 27
M  V30 27 2 23 28
M  V30 28 2 24 29
M  V30 29 1 24 30
M  V30 30 1 31 25
M  V30 31 1 25 32
M  V30 32 1 25 33 CFG=3
M  V30 33 1 26 34
M  V30 34 1 27 35
M  V30 35 2 27 36
M  V30 36 1 29 37
M  V30 37 2 30 38
M  V30 38 1 31 39
M  V30 39 1 31 40 CFG=3
M  V30 40 1 32 41
M  V30 41 1 35 42
M  V30 42 1 36 43
M  V30 43 1 37 44
M  V30 44 2 37 45
M  V30 45 1 38 46
M  V30 46 2 39 47
M  V30 47 1 39 48
M  V30 48 1 40 49
M  V30 49 1 43 50
M  V30 50 1 44 51
M  V30 51 1 45 52
M  V30 52 1 46 53
M  V30 53 1 47 54
M  V30 54 1 47 55
M  V30 55 2 48 56
M  V30 56 2 49 57
M  V30 57 1 49 58
M  V30 58 1 52 59
M  V30 59 1 54 60
M  V30 60 1 55 61
M  V30 61 2 55 62
M  V30 62 1 57 63
M  V30 63 2 58 64
M  V30 64 1 61 65
M  V30 65 1 62 66
M  V30 66 1 63 67
M  V30 67 2 63 68
M  V30 68 1 64 69
M  V30 69 1 66 70
M  V30 70 1 67 71
M  V30 71 1 68 72
M  V30 72 1 69 73
M  V30 73 1 72 74
M  V30 74 1 20 23
M  V30 75 1 28 36
M  V30 76 1 38 45
M  V30 77 1 41 48
M  V30 78 1 56 62
M  V30 79 1 64 68
M  V30 END BOND
M  V30 BEGIN COLLECTION
M  V30 MDLV30/STERAC1 ATOMS=(4 12 14 25 31)
M  V30 END COLLECTION
M  V30 END CTAB
M  END
>  <Molecule Name>


>  <status>
DISCONTINUED

>  <cas>
106819-53-8

>  <name>
DOXACURIUM

>  <ID>
657

>  <Smiles>
C[N@+](CCCOC(CCC(OCCC[N@@+](C)(CCc1cc(OC)c2OC)[C@@H](Cc(cc3OC)cc(OC)c3OC)c1c2OC)=O)=O)(CCc1cc(OC)c2OC)[C@H](Cc(cc3OC)cc(OC)c3OC)c1c2OC

$$$$

Actelion Java MolfileCreator 2.0

  0  0  0  0  0  0              0 V3000
M  V30 BEGIN CTAB
M  V30 COUNTS 22 24 0 0 0
M  V30 BEGIN ATOM
M  V30 1 F 0.0 -1.4999 0.0 0
M  V30 2 C 0.866 -1.9999 0.0 0
M  V30 3 C 1.732 -1.5 0.0 0
M  V30 4 C 0.866 -2.9999 0.0 0
M  V30 5 C 2.598 -2.0 0.0 0
M  V30 6 C 1.732 -0.5 0.0 0
M  V30 7 C 1.732 -3.5 0.0 0
M  V30 8 C 2.598 -3.0 0.0 0
M  V30 9 O 2.598 -0.9999 0.0 0
M  V30 10 C 2.598 0.0 0.0 0
M  V30 11 C 0.866 0.0 0.0 0
M  V30 12 F 1.732 -4.5 0.0 0
M  V30 13 N 3.4641 -0.5 0.0 0
M  V30 14 N 0.866 0.9999 0.0 0
M  V30 15 N 3.5686 -1.4945 0.0 0
M  V30 16 C 4.3776 -0.0932 0.0 0
M  V30 17 N 0.057 1.5877 0.0 0
M  V30 18 C 1.675 1.5877 0.0 0
M  V30 19 C 4.5467 -1.7024 0.0 0
M  V30 20 N 5.0467 -0.8364 0.0 0
M  V30 21 C 0.366 2.5388 0.0 0
M  V30 22 N 1.366 2.5388 0.0 0
M  V30 END ATOM
M  V30 BEGIN BOND
M  V30 1 1 1 2
M  V30 2 2 2 3
M  V30 3 1 2 4
M  V30 4 1 3 5
M  V30 5 1 3 6
M  V30 6 2 4 7
M  V30 7 2 5 8
M  V30 8 1 6 9
M  V30 9 1 6 10
M  V30 10 1 6 11
M  V30 11 1 7 12
M  V30 12 1 10 13
M  V30 13 1 11 14
M  V30 14 1 13 15
M  V30 15 1 13 16
M  V30 16 1 14 17
M  V30 17 1 14 18
M  V30 18 2 15 19
M  V30 19 2 16 20
M  V30 20 2 17 21
M  V30 21 2 18 22
M  V30 22 1 7 8
M  V30 23 1 19 20
M  V30 24 1 21 22
M  V30 END BOND
M  V30 END CTAB
M  END
>  <Molecule Name>


>  <status>
-

>  <cas>
86386-73-4

>  <name>
FLUCONAZOLE

>  <ID>
658

>  <Smiles>
OC(Cn1ncnc1)(Cn1ncnc1)c(ccc(F)c1)c1F

$$$$

Actelion Java MolfileCreator 2.0

  0  0  0  0  0  0              0 V3000
M  V30 BEGIN CTAB
M  V30 COUNTS 34 37 0 0 0
M  V30 BEGIN ATOM
M  V30 1 S 2.6051 -0.8896 0.0 0
M  V30 2 C 1.2631 -1.5734 0.0 0
M  V30 3 C 2.684 0.6144 0.0 0
M  V30 4 O 1.365 -2.9302 0.0 0
M  V30 5 C 0.0 -0.753 0.0 0 CFG=2
M  V30 6 F 4.026 1.2982 0.0 0
M  V30 7 O 1.3043 0.0 0.0 0
M  V30 8 C -1.3759 -0.1404 0.0 0 CFG=2
M  V30 9 C -0.1574 -2.251 0.0 0 CFG=1
M  V30 10 C 1.3043 1.5061 0.0 0
M  V30 11 C -2.3837 -1.2597 0.0 0 CFG=1
M  V30 12 C -1.8413 1.2919 0.0 0
M  V30 13 C -0.2566 0.8673 0.0 0
M  V30 14 C -1.6306 -2.5641 0.0 0
M  V30 15 C 0.8715 -3.3324 0.0 0
M  V30 16 O 0.0 2.2592 0.0 0
M  V30 17 C 2.6087 2.2592 0.0 0
M  V30 18 C -3.857 -0.9466 0.0 0 CFG=1
M  V30 19 C -3.3146 1.6051 0.0 0 CFG=1
M  V30 20 C 2.6087 3.7654 0.0 0
M  V30 21 C -4.3224 0.4858 0.0 0 CFG=1
M  V30 22 C -4.8648 -2.0659 0.0 0
M  V30 23 O -3.78 3.0375 0.0 0
M  V30 24 F -4.6147 1.8256 0.0 0
M  V30 25 C -5.7957 0.7989 0.0 0 CFG=2
M  V30 26 C -6.3381 -1.7527 0.0 0 CFG=1
M  V30 27 C -6.8035 -0.3203 0.0 0
M  V30 28 C -6.2611 2.2314 0.0 0
M  V30 29 C -5.0541 2.1845 0.0 0
M  V30 30 F -7.3459 -2.872 0.0 0
M  V30 31 C -8.2768 -0.0071 0.0 0
M  V30 32 C -7.7344 2.5445 0.0 0
M  V30 33 C -8.7422 1.4252 0.0 0
M  V30 34 O -10.2155 1.7384 0.0 0
M  V30 END ATOM
M  V30 BEGIN BOND
M  V30 1 1 1 2
M  V30 2 1 1 3
M  V30 3 2 2 4
M  V30 4 1 5 2
M  V30 5 1 3 6
M  V30 6 1 5 7 CFG=3
M  V30 7 1 8 5
M  V30 8 1 9 5
M  V30 9 1 7 10
M  V30 10 1 11 8
M  V30 11 1 8 12
M  V30 12 1 8 13 CFG=1
M  V30 13 1 9 14
M  V30 14 1 9 15 CFG=3
M  V30 15 2 10 16
M  V30 16 1 10 17
M  V30 17 1 18 11
M  V30 18 1 19 12
M  V30 19 1 17 20
M  V30 20 1 21 18
M  V30 21 1 18 22 CFG=3
M  V30 22 1 19 23 CFG=1
M  V30 23 1 21 24 CFG=3
M  V30 24 1 25 21
M  V30 25 1 26 22
M  V30 26 1 25 27
M  V30 27 1 25 28
M  V30 28 1 25 29 CFG=1
M  V30 29 1 26 30 CFG=3
M  V30 30 2 27 31
M  V30 31 2 28 32
M  V30 32 1 31 33
M  V30 33 2 33 34
M  V30 34 1 11 14 CFG=1
M  V30 35 1 19 21
M  V30 36 1 26 27
M  V30 37 1 32 33
M  V30 END BOND
M  V30 BEGIN COLLECTION
M  V30 MDLV30/STERAC1 ATOMS=(9 5 8 9 11 18 19 21 25 26)
M  V30 END COLLECTION
M  V30 END CTAB
M  END
>  <Molecule Name>


>  <status>
-

>  <cas>
80474-14-2

>  <name>
FLUTICASONE PROPIONATE

>  <ID>
659

>  <Smiles>
CCC(O[C@]([C@H](C)C1)([C@@](C)(C[C@@H]2O)[C@@H]1[C@H](C[C@@H](C([C@]1(C)C=C3)=CC3=O)F)[C@@]12F)C(SCF)=O)=O

$$$$
_c001
Actelion Java MolfileCreator 2.0

  0  0  0  0  0  0              0 V3000
M  V30 BEGIN CTAB
M  V30 COUNTS 33 36 0 0 0
M  V30 BEGIN ATOM
M  V30 1 Cl 3.8688 -1.7101 0.0 0
M  V30 2 C 2.6054 -0.8897 0.0 0
M  V30 3 C 1.2633 -1.5735 0.0 0
M  V30 4 O 1.3651 -2.9306 0.0 0
M  V30 5 C 0.0 -0.7531 0.0 0 CFG=2
M  V30 6 O 1.3045 0.0 0.0 0
M  V30 7 C -1.3761 -0.1404 0.0 0 CFG=2
M  V30 8 C -0.1574 -2.2512 0.0 0 CFG=2
M  V30 9 C 1.3045 1.5063 0.0 0
M  V30 10 C -2.384 -1.2599 0.0 0 CFG=1
M  V30 11 C -1.8416 1.2921 0.0 0
M  V30 12 C -0.2566 0.8674 0.0 0
M  V30 13 C -1.6308 -2.5644 0.0 0
M  V30 14 C 0.8716 -3.3328 0.0 0
M  V30 15 O 0.0 2.2595 0.0 0
M  V30 16 C 2.609 2.2595 0.0 0
M  V30 17 C -3.8574 -0.9467 0.0 0 CFG=1
M  V30 18 C -3.315 1.6053 0.0 0 CFG=1
M  V30 19 C 2.609 3.7658 0.0 0
M  V30 20 C -4.3229 0.4858 0.0 0 CFG=1
M  V30 21 C -4.8654 -2.0661 0.0 0
M  V30 22 O -3.7805 3.0379 0.0 0
M  V30 23 F -4.6153 1.8258 0.0 0
M  V30 24 C -5.7963 0.799 0.0 0 CFG=2
M  V30 25 C -6.3388 -1.7529 0.0 0 CFG=1
M  V30 26 C -6.8043 -0.3203 0.0 0
M  V30 27 C -6.2618 2.2316 0.0 0
M  V30 28 C -5.0547 2.1847 0.0 0
M  V30 29 F -7.3467 -2.8724 0.0 0
M  V30 30 C -8.2777 -0.0071 0.0 0
M  V30 31 C -7.7353 2.5448 0.0 0
M  V30 32 C -8.7432 1.4254 0.0 0
M  V30 33 O -10.2166 1.7386 0.0 0
M  V30 END ATOM
M  V30 BEGIN BOND
M  V30 1 1 1 2
M  V30 2 1 2 3
M  V30 3 2 3 4
M  V30 4 1 5 3
M  V30 5 1 5 6 CFG=3
M  V30 6 1 7 5
M  V30 7 1 8 5
M  V30 8 1 6 9
M  V30 9 1 10 7
M  V30 10 1 7 11
M  V30 11 1 7 12 CFG=1
M  V30 12 1 8 13
M  V30 13 1 8 14 CFG=1
M  V30 14 2 9 15
M  V30 15 1 9 16
M  V30 16 1 17 10
M  V30 17 1 18 11
M  V30 18 1 16 19
M  V30 19 1 20 17
M  V30 20 1 17 21 CFG=3
M  V30 21 1 18 22 CFG=1
M  V30 22 1 20 23 CFG=3
M  V30 23 1 24 20
M  V30 24 1 25 21
M  V30 25 1 24 26
M  V30 26 1 24 27
M  V30 27 1 24 28 CFG=1
M  V30 28 1 25 29 CFG=3
M  V30 29 2 26 30
M  V30 30 2 27 31
M  V30 31 1 30 32
M  V30 32 2 32 33
M  V30 33 1 10 13 CFG=1
M  V30 34 1 18 20
M  V30 35 1 25 26
M  V30 36 1 31 32
M  V30 END BOND
M  V30 BEGIN COLLECTION
M  V30 MDLV30/STERAC1 ATOMS=(9 5 7 8 10 17 18 20 24 25)
M  V30 END COLLECTION
M  V30 END CTAB
M  END
>  <Molecule Name>
_c001

>  <status>
-

>  <cas>
66852-54-8

>  <name>
HALOBETASOL PROPIONATE

>  <ID>
660

>  <Smiles>
CCC(O[C@]([C@@H](C)C1)([C@@](C)(C[C@@H]2O)[C@@H]1[C@H](C[C@@H](C([C@]1(C)C=C3)=CC3=O)F)[C@@]12F)C(CCl)=O)=O

$$$$

Actelion Java MolfileCreator 2.0

  0  0  0  0  0  0              0 V3000
M  V30 BEGIN CTAB
M  V30 COUNTS 17 19 0 0 0
M  V30 BEGIN ATOM
M  V30 1 Cl 2.598 1.0 0.0 0
M  V30 2 C 2.598 0.0 0.0 0
M  V30 3 C 1.732 -0.5 0.0 0
M  V30 4 C 3.4641 -0.4999 0.0 0
M  V30 5 C 1.732 -1.5 0.0 0
M  V30 6 C 0.866 0.0 0.0 0
M  V30 7 C 3.4641 -1.4999 0.0 0
M  V30 8 C 2.598 -1.9999 0.0 0
M  V30 9 N 0.0 -0.5 0.0 0
M  V30 10 C 0.0 -1.4999 0.0 0
M  V30 11 C -0.866 0.0 0.0 0
M  V30 12 C -0.866 -1.9999 0.0 0
M  V30 13 C -1.732 -0.4999 0.0 0
M  V30 14 C -1.732 -1.4999 0.0 0
M  V30 15 C -1.0739 -2.9781 0.0 0
M  V30 16 S -2.4751 -2.1691 0.0 0
M  V30 17 C -2.0684 -3.0826 0.0 0
M  V30 END ATOM
M  V30 BEGIN BOND
M  V30 1 1 1 2
M  V30 2 2 2 3
M  V30 3 1 2 4
M  V30 4 1 3 5
M  V30 5 1 3 6
M  V30 6 2 4 7
M  V30 7 2 5 8
M  V30 8 1 6 9
M  V30 9 1 9 10
M  V30 10 1 9 11
M  V30 11 1 10 12
M  V30 12 1 11 13
M  V30 13 2 12 14
M  V30 14 1 12 15
M  V30 15 1 14 16
M  V30 16 2 15 17
M  V30 17 1 7 8
M  V30 18 1 13 14
M  V30 19 1 16 17
M  V30 END BOND
M  V30 END CTAB
M  END
>  <Molecule Name>


>  <status>
-

>  <cas>
55142-85-3

>  <name>
TICLOPIDINE

>  <ID>
661

>  <Smiles>
Clc1c(CN(CC2)Cc3c2scc3)cccc1

$$$$

Actelion Java MolfileCreator 2.0

  0  0  0  0  0  0              0 V3000
M  V30 BEGIN CTAB
M  V30 COUNTS 23 23 0 0 0
M  V30 BEGIN ATOM
M  V30 1 O 5.1961 -0.5 0.0 0
M  V30 2 C 6.0621 0.0 0.0 0
M  V30 3 C 4.3301 0.0 0.0 0
M  V30 4 C 6.9282 -0.5 0.0 0
M  V30 5 C 6.0621 0.9999 0.0 0
M  V30 6 C 3.4641 -0.5 0.0 0 CFG=1
M  V30 7 C 7.7942 0.0 0.0 0
M  V30 8 C 6.9282 1.4999 0.0 0
M  V30 9 O 3.4641 -1.5 0.0 0
M  V30 10 C 2.598 0.0 0.0 0
M  V30 11 C 7.7942 0.9999 0.0 0
M  V30 12 N 1.732 -0.5 0.0 0
M  V30 13 C 8.6602 1.4999 0.0 0
M  V30 14 C 0.866 0.0 0.0 0
M  V30 15 O 9.5262 0.9999 0.0 0
M  V30 16 C 0.866 1.0 0.0 0
M  V30 17 C 0.0 -0.5 0.0 0
M  V30 18 C 10.3923 1.4999 0.0 0
M  V30 19 C 11.2583 0.9999 0.0 0
M  V30 20 O 12.1243 1.4999 0.0 0
M  V30 21 C 12.9903 0.9999 0.0 0
M  V30 22 C 12.9903 0.0 0.0 0
M  V30 23 C 13.8564 1.4999 0.0 0
M  V30 END ATOM
M  V30 BEGIN BOND
M  V30 1 1 1 2
M  V30 2 1 1 3
M  V30 3 2 2 4
M  V30 4 1 2 5
M  V30 5 1 6 3
M  V30 6 1 4 7
M  V30 7 2 5 8
M  V30 8 1 6 9 CFG=1
M  V30 9 1 6 10
M  V30 10 2 7 11
M  V30 11 1 10 12
M  V30 12 1 11 13
M  V30 13 1 12 14
M  V30 14 1 13 15
M  V30 15 1 14 16
M  V30 16 1 14 17
M  V30 17 1 15 18
M  V30 18 1 18 19
M  V30 19 1 19 20
M  V30 20 1 20 21
M  V30 21 1 21 22
M  V30 22 1 21 23
M  V30 23 1 8 11
M  V30 END BOND
M  V30 BEGIN COLLECTION
M  V30 MDLV30/STERAC1 ATOMS=(1 6)
M  V30 END COLLECTION
M  V30 END CTAB
M  END
>  <Molecule Name>


>  <status>
-

>  <cas>
66722-44-9

>  <name>
BISOPROLOL

>  <ID>
662

>  <Smiles>
CC(C)NCC(COc1ccc(COCCOC(C)C)cc1)O

$$$$

Actelion Java MolfileCreator 2.0

  0  0  0  0  0  0              0 V3000
M  V30 BEGIN CTAB
M  V30 COUNTS 10 9 0 0 0
M  V30 BEGIN ATOM
M  V30 1 S 2.598 1.0 0.0 0
M  V30 2 C 2.598 0.0 0.0 0 CFG=2
M  V30 3 C 3.4641 -0.5 0.0 0
M  V30 4 C 1.732 -0.5 0.0 0 CFG=1
M  V30 5 O 4.3301 0.0 0.0 0
M  V30 6 O 3.4641 -1.5 0.0 0 CHG=-1
M  V30 7 S 1.732 -1.5 0.0 0
M  V30 8 C 0.866 0.0 0.0 0
M  V30 9 O 0.866 1.0 0.0 0
M  V30 10 O 0.0 -0.5 0.0 0 CHG=-1
M  V30 END ATOM
M  V30 BEGIN BOND
M  V30 1 1 2 1 CFG=3
M  V30 2 1 2 3
M  V30 3 1 4 2
M  V30 4 2 3 5
M  V30 5 1 3 6
M  V30 6 1 4 7 CFG=1
M  V30 7 1 4 8
M  V30 8 2 8 9
M  V30 9 1 8 10
M  V30 END BOND
M  V30 BEGIN COLLECTION
M  V30 MDLV30/STEABS ATOMS=(2 2 4)
M  V30 END COLLECTION
M  V30 END CTAB
M  END
>  <Molecule Name>


>  <status>
-

>  <cas>
304-55-2

>  <name>
SUCCIMER

>  <ID>
663

>  <Smiles>
[O-]C([C@@H]([C@@H](C([O-])=O)S)S)=O

$$$$

Actelion Java MolfileCreator 2.0

  0  0  0  0  0  0              0 V3000
M  V30 BEGIN CTAB
M  V30 COUNTS 22 25 0 0 0
M  V30 BEGIN ATOM
M  V30 1 O 0.866 -1.9999 0.0 0
M  V30 2 C 1.732 -1.4999 0.0 0
M  V30 3 C 2.598 -1.9999 0.0 0
M  V30 4 C 1.732 -0.5 0.0 0 CFG=2
M  V30 5 C 2.8059 -2.9781 0.0 0
M  V30 6 C 3.4641 -1.5 0.0 0
M  V30 7 C 2.598 0.0 0.0 0
M  V30 8 C 0.866 0.0 0.0 0
M  V30 9 C 3.8005 -3.0826 0.0 0
M  V30 10 C 2.2182 -3.7871 0.0 0
M  V30 11 N 4.2072 -2.1691 0.0 0
M  V30 12 C 3.4641 -0.5 0.0 0
M  V30 13 N 0.0 -0.5 0.0 0
M  V30 14 C 4.2072 -3.9962 0.0 0
M  V30 15 C 2.6249 -4.7007 0.0 0
M  V30 16 C 5.1853 -1.9612 0.0 0
M  V30 17 C -0.9135 -0.0932 0.0 0
M  V30 18 C -0.1045 -1.4945 0.0 0
M  V30 19 C 3.6194 -4.8052 0.0 0
M  V30 20 N -1.5826 -0.8364 0.0 0
M  V30 21 C -1.1214 0.8848 0.0 0
M  V30 22 C -1.0826 -1.7024 0.0 0
M  V30 END ATOM
M  V30 BEGIN BOND
M  V30 1 2 1 2
M  V30 2 1 2 3
M  V30 3 1 4 2
M  V30 4 1 3 5
M  V30 5 2 3 6
M  V30 6 1 4 7
M  V30 7 1 4 8 CFG=1
M  V30 8 2 5 9
M  V30 9 1 5 10
M  V30 10 1 6 11
M  V30 11 1 6 12
M  V30 12 1 8 13
M  V30 13 1 9 14
M  V30 14 2 10 15
M  V30 15 1 11 16
M  V30 16 1 13 17
M  V30 17 1 13 18
M  V30 18 2 14 19
M  V30 19 2 17 20
M  V30 20 1 17 21
M  V30 21 2 18 22
M  V30 22 1 7 12
M  V30 23 1 9 11
M  V30 24 1 15 19
M  V30 25 1 20 22
M  V30 END BOND
M  V30 BEGIN COLLECTION
M  V30 MDLV30/STERAC1 ATOMS=(1 4)
M  V30 END COLLECTION
M  V30 END CTAB
M  END
>  <Molecule Name>


>  <status>
-

>  <cas>
99614-02-5

>  <name>
ONDANSETRON

>  <ID>
664

>  <Smiles>
Cc1nccn1CC(CCc1c2c(cccc3)c3n1C)C2=O

$$$$

Actelion Java MolfileCreator 2.0

  0  0  0  0  0  0              0 V3000
M  V30 BEGIN CTAB
M  V30 COUNTS 25 27 0 0 0
M  V30 BEGIN ATOM
M  V30 1 F 0.0 -1.4999 0.0 0
M  V30 2 C 0.866 -1.9999 0.0 0
M  V30 3 C 0.866 -2.9999 0.0 0
M  V30 4 C 1.732 -1.5 0.0 0
M  V30 5 N 0.0 -3.4999 0.0 0
M  V30 6 C 1.732 -3.5 0.0 0
M  V30 7 N 1.732 -0.5 0.0 0
M  V30 8 C 2.598 -1.9999 0.0 0
M  V30 9 C -0.866 -2.9999 0.0 0
M  V30 10 C 0.0 -4.4999 0.0 0
M  V30 11 F 1.732 -4.5 0.0 0
M  V30 12 C 2.598 -3.0 0.0 0
M  V30 13 C 2.598 0.0 0.0 0
M  V30 14 C 0.866 0.0 0.0 0
M  V30 15 C 3.4641 -1.5 0.0 0
M  V30 16 C -1.732 -3.4999 0.0 0 CFG=1
M  V30 17 C -0.866 -4.9999 0.0 0
M  V30 18 C 3.4641 -0.5 0.0 0
M  V30 19 C 0.0 -0.5 0.0 0
M  V30 20 O 4.3301 -2.0 0.0 0
M  V30 21 N -1.732 -4.4999 0.0 0
M  V30 22 C -2.598 -2.9999 0.0 0
M  V30 23 C 4.3301 0.0 0.0 0
M  V30 24 O 5.1961 -0.5 0.0 0
M  V30 25 O 4.3301 0.9999 0.0 0 CHG=-1
M  V30 END ATOM
M  V30 BEGIN BOND
M  V30 1 1 1 2
M  V30 2 2 2 3
M  V30 3 1 2 4
M  V30 4 1 3 5
M  V30 5 1 3 6
M  V30 6 1 4 7
M  V30 7 2 4 8
M  V30 8 1 5 9
M  V30 9 1 5 10
M  V30 10 1 6 11
M  V30 11 2 6 12
M  V30 12 1 7 13
M  V30 13 1 7 14
M  V30 14 1 8 15
M  V30 15 1 16 9
M  V30 16 1 10 17
M  V30 17 2 13 18
M  V30 18 1 14 19
M  V30 19 2 15 20
M  V30 20 1 16 21
M  V30 21 1 16 22 CFG=1
M  V30 22 1 18 23
M  V30 23 2 23 24
M  V30 24 1 23 25
M  V30 25 1 8 12
M  V30 26 1 15 18
M  V30 27 1 17 21
M  V30 END BOND
M  V30 BEGIN COLLECTION
M  V30 MDLV30/STERAC1 ATOMS=(1 16)
M  V30 END COLLECTION
M  V30 END CTAB
M  END
>  <Molecule Name>


>  <status>
DISCONTINUED

>  <cas>
98079-51-7

>  <name>
LOMEFLOXACIN

>  <ID>
665

>  <Smiles>
CCN(C=C1C([O-])=O)c(c(F)c(c(F)c2)N3CC(C)NCC3)c2C1=O

$$$$

Actelion Java MolfileCreator 2.0

  0  0  0  0  0  0              0 V3000
M  V30 BEGIN CTAB
M  V30 COUNTS 24 27 0 0 0
M  V30 BEGIN ATOM
M  V30 1 F -1.299 4.5 0.0 0
M  V30 2 C 0.0 3.75 0.0 0
M  V30 3 C 0.0 2.25 0.0 0
M  V30 4 C 1.299 4.5 0.0 0
M  V30 5 C 1.299 1.5 0.0 0
M  V30 6 C 2.598 3.7499 0.0 0
M  V30 7 C 2.598 2.25 0.0 0
M  V30 8 C 3.8971 1.5 0.0 0 CFG=2
M  V30 9 C 3.8971 0.0 0.0 0 CFG=2
M  V30 10 C 5.1961 2.25 0.0 0
M  V30 11 C 5.1961 -0.75 0.0 0
M  V30 12 C 2.598 -0.75 0.0 0
M  V30 13 C 6.4951 1.5 0.0 0
M  V30 14 N 6.4951 0.0 0.0 0
M  V30 15 O 1.299 0.0 0.0 0
M  V30 16 C 0.0 -0.75 0.0 0
M  V30 17 C -1.299 0.0 0.0 0
M  V30 18 C 0.0 -2.2499 0.0 0
M  V30 19 C -2.598 -0.7499 0.0 0
M  V30 20 C -1.299 -2.9999 0.0 0
M  V30 21 O -4.0246 -0.2864 0.0 0
M  V30 22 C -2.598 -2.2499 0.0 0
M  V30 23 C -4.9063 -1.4999 0.0 0
M  V30 24 O -4.0246 -2.7135 0.0 0
M  V30 END ATOM
M  V30 BEGIN BOND
M  V30 1 1 1 2
M  V30 2 2 2 3
M  V30 3 1 2 4
M  V30 4 1 3 5
M  V30 5 2 4 6
M  V30 6 2 5 7
M  V30 7 1 8 7 CFG=1
M  V30 8 1 9 8
M  V30 9 1 8 10
M  V30 10 1 9 11
M  V30 11 1 9 12 CFG=3
M  V30 12 1 10 13
M  V30 13 1 11 14
M  V30 14 1 12 15
M  V30 15 1 15 16
M  V30 16 2 16 17
M  V30 17 1 16 18
M  V30 18 1 17 19
M  V30 19 2 18 20
M  V30 20 1 19 21
M  V30 21 2 19 22
M  V30 22 1 21 23
M  V30 23 1 22 24
M  V30 24 1 6 7
M  V30 25 1 13 14
M  V30 26 1 20 22
M  V30 27 1 23 24
M  V30 END BOND
M  V30 BEGIN COLLECTION
M  V30 MDLV30/STERAC1 ATOMS=(2 8 9)
M  V30 END COLLECTION
M  V30 END CTAB
M  END
>  <Molecule Name>


>  <status>
-

>  <cas>
61869-08-7

>  <name>
PAROXETINE

>  <ID>
666

>  <Smiles>
Fc1ccc([C@@H]2[C@@H](COc(cc3)cc4c3OCO4)CNCC2)cc1

$$$$

Actelion Java MolfileCreator 2.0

  0  0  0  0  0  0              0 V3000
M  V30 BEGIN CTAB
M  V30 COUNTS 18 19 0 0 0
M  V30 BEGIN ATOM
M  V30 1 N 4.3301 1.0 0.0 0
M  V30 2 C 4.3301 0.0 0.0 0
M  V30 3 C 5.1961 1.5 0.0 0
M  V30 4 C 5.1961 -0.4999 0.0 0
M  V30 5 C 3.4641 -0.5 0.0 0 CFG=2
M  V30 6 C 6.0621 1.0 0.0 0
M  V30 7 C 6.0621 0.0 0.0 0
M  V30 8 C 3.4641 -1.5 0.0 0
M  V30 9 C 2.598 0.0 0.0 0
M  V30 10 C 2.598 -1.9999 0.0 0
M  V30 11 C 4.3301 -2.0 0.0 0
M  V30 12 C 1.732 -0.5 0.0 0
M  V30 13 C 2.598 -2.9999 0.0 0
M  V30 14 C 4.3301 -3.0 0.0 0
M  V30 15 N 0.866 0.0 0.0 0
M  V30 16 C 3.4641 -3.5 0.0 0
M  V30 17 C 0.866 1.0 0.0 0
M  V30 18 C 0.0 -0.5 0.0 0
M  V30 END ATOM
M  V30 BEGIN BOND
M  V30 1 2 1 2
M  V30 2 1 1 3
M  V30 3 1 2 4
M  V30 4 1 5 2
M  V30 5 2 3 6
M  V30 6 2 4 7
M  V30 7 1 5 8
M  V30 8 1 5 9 CFG=3
M  V30 9 2 8 10
M  V30 10 1 8 11
M  V30 11 1 9 12
M  V30 12 1 10 13
M  V30 13 2 11 14
M  V30 14 1 12 15
M  V30 15 2 13 16
M  V30 16 1 15 17
M  V30 17 1 15 18
M  V30 18 1 6 7
M  V30 19 1 14 16
M  V30 END BOND
M  V30 BEGIN COLLECTION
M  V30 MDLV30/STERAC1 ATOMS=(1 5)
M  V30 END COLLECTION
M  V30 END CTAB
M  END
>  <Molecule Name>


>  <status>
-

>  <cas>
86-21-5

>  <name>
PHENIRAMINE

>  <ID>
667

>  <Smiles>
CN(C)CCC(c1ccccc1)c1ncccc1

$$$$

Actelion Java MolfileCreator 2.0

  0  0  0  0  0  0              0 V3000
M  V30 BEGIN CTAB
M  V30 COUNTS 14 16 0 0 0
M  V30 BEGIN ATOM
M  V30 1 S 3.9267 2.9183 0.0 0
M  V30 2 C 2.923 1.8036 0.0 0
M  V30 3 C 5.297 2.3082 0.0 0
M  V30 4 N 1.4558 1.4917 0.0 0
M  V30 5 N 3.673 0.5046 0.0 0
M  V30 6 C 5.1402 0.8164 0.0 0
M  V30 7 C 1.299 0.0 0.0 0 CFG=1
M  V30 8 C 2.6693 -0.6101 0.0 0
M  V30 9 C 0.0 -0.75 0.0 0
M  V30 10 C -1.299 0.0 0.0 0
M  V30 11 C 0.0 -2.2499 0.0 0
M  V30 12 C -2.598 -0.7499 0.0 0
M  V30 13 C -1.299 -2.9999 0.0 0
M  V30 14 C -2.598 -2.2499 0.0 0
M  V30 END ATOM
M  V30 BEGIN BOND
M  V30 1 1 1 2
M  V30 2 1 1 3
M  V30 3 2 2 4
M  V30 4 1 2 5
M  V30 5 1 3 6
M  V30 6 1 7 4
M  V30 7 1 5 8
M  V30 8 1 7 9 CFG=1
M  V30 9 2 9 10
M  V30 10 1 9 11
M  V30 11 1 10 12
M  V30 12 2 11 13
M  V30 13 2 12 14
M  V30 14 1 5 6
M  V30 15 1 7 8
M  V30 16 1 13 14
M  V30 END BOND
M  V30 BEGIN COLLECTION
M  V30 MDLV30/STERAC1 ATOMS=(1 7)
M  V30 END COLLECTION
M  V30 END CTAB
M  END
>  <Molecule Name>


>  <status>
DISCONTINUED

>  <cas>
14769-73-4

>  <name>
LEVAMISOLE

>  <ID>
668

>  <Smiles>
C(CS1)N(C2)C1=NC2c1ccccc1

$$$$

Actelion Java MolfileCreator 2.0

  0  0  0  0  0  0              0 V3000
M  V30 BEGIN CTAB
M  V30 COUNTS 24 26 0 0 0
M  V30 BEGIN ATOM
M  V30 1 P 2.598 0.0 0.0 0
M  V30 2 O 3.098 -0.866 0.0 0
M  V30 3 O 1.732 -0.5 0.0 0
M  V30 4 O 3.4641 0.5 0.0 0 CHG=-1
M  V30 5 O 2.098 0.866 0.0 0 CHG=-1
M  V30 6 C 0.866 0.0 0.0 0
M  V30 7 C 0.0 -0.5 0.0 0 CFG=2
M  V30 8 O -0.9135 -0.0932 0.0 0
M  V30 9 C -0.1045 -1.4945 0.0 0 CFG=2
M  V30 10 C -1.5826 -0.8364 0.0 0 CFG=1
M  V30 11 O 0.6386 -2.1636 0.0 0
M  V30 12 C -1.0826 -1.7024 0.0 0 CFG=2
M  V30 13 N -2.5771 -0.7318 0.0 0
M  V30 14 O -1.4894 -2.6159 0.0 0
M  V30 15 C -3.0771 0.1341 0.0 0
M  V30 16 C -3.2463 -1.475 0.0 0
M  V30 17 N -2.7681 1.0852 0.0 0
M  V30 18 C -4.0553 -0.0737 0.0 0
M  V30 19 N -4.1598 -1.0682 0.0 0
M  V30 20 C -3.4373 1.8283 0.0 0
M  V30 21 C -4.7244 0.6693 0.0 0
M  V30 22 F -3.1282 2.7794 0.0 0
M  V30 23 N -4.4154 1.6204 0.0 0
M  V30 24 N -5.7026 0.4614 0.0 0
M  V30 END ATOM
M  V30 BEGIN BOND
M  V30 1 2 1 2
M  V30 2 1 1 3
M  V30 3 1 1 4
M  V30 4 1 1 5
M  V30 5 1 3 6
M  V30 6 1 7 6 CFG=1
M  V30 7 1 7 8
M  V30 8 1 9 7
M  V30 9 1 10 8
M  V30 10 1 9 11 CFG=3
M  V30 11 1 12 9
M  V30 12 1 10 13 CFG=1
M  V30 13 1 12 14 CFG=1
M  V30 14 1 13 15
M  V30 15 1 13 16
M  V30 16 2 15 17
M  V30 17 1 15 18
M  V30 18 2 16 19
M  V30 19 1 17 20
M  V30 20 2 18 21
M  V30 21 1 20 22
M  V30 22 2 20 23
M  V30 23 1 21 24
M  V30 24 1 10 12
M  V30 25 1 18 19
M  V30 26 1 21 23
M  V30 END BOND
M  V30 BEGIN COLLECTION
M  V30 MDLV30/STERAC1 ATOMS=(4 7 9 10 12)
M  V30 END COLLECTION
M  V30 END CTAB
M  END
>  <Molecule Name>


>  <status>
-

>  <cas>
75607-67-9

>  <name>
FLUDARABINE PHOSPHATE

>  <ID>
669

>  <Smiles>
Nc1c2ncn([C@H]([C@@H]3O)O[C@@H](COP([O-])([O-])=O)[C@@H]3O)c2nc(F)n1

$$$$

Actelion Java MolfileCreator 2.0

  0  0  0  0  0  0              0 V3000
M  V30 BEGIN CTAB
M  V30 COUNTS 15 15 0 0 0
M  V30 BEGIN ATOM
M  V30 1 O 7.7942 2.25 0.0 0
M  V30 2 C 6.4952 1.5 0.0 0
M  V30 3 C 5.1961 2.25 0.0 0
M  V30 4 C 6.4952 0.0 0.0 0
M  V30 5 C 3.8971 1.5 0.0 0
M  V30 6 C 5.1961 -0.75 0.0 0
M  V30 7 C 3.8971 0.0 0.0 0
M  V30 8 C 2.598 -0.75 0.0 0
M  V30 9 C 1.299 0.0 0.0 0
M  V30 10 C 1.848 -2.049 0.0 0
M  V30 11 C 3.348 -2.049 0.0 0
M  V30 12 C 0.0 -0.75 0.0 0
M  V30 13 C 0.75 -2.049 0.0 0
M  V30 14 C -1.299 -1.5 0.0 0
M  V30 15 C -0.75 0.549 0.0 0
M  V30 END ATOM
M  V30 BEGIN BOND
M  V30 1 1 1 2
M  V30 2 2 2 3
M  V30 3 1 2 4
M  V30 4 1 3 5
M  V30 5 2 4 6
M  V30 6 2 5 7
M  V30 7 1 7 8
M  V30 8 1 8 9
M  V30 9 1 8 10
M  V30 10 1 8 11
M  V30 11 1 9 12
M  V30 12 1 12 13
M  V30 13 1 12 14
M  V30 14 1 12 15
M  V30 15 1 6 7
M  V30 END BOND
M  V30 END CTAB
M  END
>  <Molecule Name>


>  <status>
DISCONTINUED

>  <cas>
140-66-9

>  <name>
TYLOXAPOL

>  <ID>
670

>  <Smiles>
CC(C)(C)CC(C)(C)c(cc1)ccc1O

$$$$

Actelion Java MolfileCreator 2.0

  0  0  0  0  0  0              0 V3000
M  V30 BEGIN CTAB
M  V30 COUNTS 49 55 0 0 0
M  V30 BEGIN ATOM
M  V30 1 Cl 2.558 1.3343 0.0 0
M  V30 2 C 3.0956 2.7347 0.0 0
M  V30 3 C 4.5771 2.9693 0.0 0
M  V30 4 C 2.1516 3.9004 0.0 0
M  V30 5 C 5.1146 4.3697 0.0 0
M  V30 6 C 5.5211 1.8036 0.0 0 CFG=2
M  V30 7 C 2.6891 5.3008 0.0 0
M  V30 8 C 4.1707 5.5354 0.0 0
M  V30 9 O 4.0539 1.4917 0.0 0
M  V30 10 O 6.2711 0.5046 0.0 0
M  V30 11 C 6.1312 3.1739 0.0 0
M  V30 12 Cl 1.7452 6.4665 0.0 0
M  V30 13 C 3.8971 0.0 0.0 0 CFG=2
M  V30 14 C 5.2674 -0.6101 0.0 0
M  V30 15 N 7.623 3.3307 0.0 0
M  V30 16 C 2.598 -0.75 0.0 0
M  V30 17 N 8.6267 2.216 0.0 0
M  V30 18 C 8.373 4.6297 0.0 0
M  V30 19 O 1.299 0.0 0.0 0
M  V30 20 C 9.997 2.8261 0.0 0
M  V30 21 N 9.8402 4.3179 0.0 0
M  V30 22 C 0.0 -0.75 0.0 0
M  V30 23 C -1.299 0.0 0.0 0
M  V30 24 C 0.0 -2.2499 0.0 0
M  V30 25 C -2.598 -0.7499 0.0 0
M  V30 26 C -1.299 -2.9999 0.0 0
M  V30 27 C -2.598 -2.2499 0.0 0
M  V30 28 N -3.8971 -2.9999 0.0 0
M  V30 29 C -5.1961 -2.2499 0.0 0
M  V30 30 C -3.8971 -4.4999 0.0 0
M  V30 31 C -6.4951 -2.9999 0.0 0
M  V30 32 C -5.1961 -5.2499 0.0 0
M  V30 33 N -6.4951 -4.4999 0.0 0
M  V30 34 C -7.7942 -5.2499 0.0 0
M  V30 35 C -9.0932 -4.4999 0.0 0
M  V30 36 C -7.7942 -6.7499 0.0 0
M  V30 37 C -10.3923 -5.2499 0.0 0
M  V30 38 C -9.0932 -7.4999 0.0 0
M  V30 39 C -10.3923 -6.7499 0.0 0
M  V30 40 N -11.6913 -7.4999 0.0 0
M  V30 41 C -13.0616 -6.8898 0.0 0
M  V30 42 C -11.8481 -8.9917 0.0 0
M  V30 43 O -13.3735 -5.4226 0.0 0
M  V30 44 N -14.0653 -8.0046 0.0 0
M  V30 45 N -13.3153 -9.3036 0.0 0
M  V30 46 C -15.5571 -7.8478 0.0 0 CFG=2
M  V30 47 C -16.1672 -6.4775 0.0 0
M  V30 48 C -16.4388 -9.0613 0.0 0
M  V30 49 C -17.659 -6.3207 0.0 0
M  V30 END ATOM
M  V30 BEGIN BOND
M  V30 1 1 1 2
M  V30 2 2 2 3
M  V30 3 1 2 4
M  V30 4 1 3 5
M  V30 5 1 6 3
M  V30 6 2 4 7
M  V30 7 2 5 8
M  V30 8 1 6 9
M  V30 9 1 6 10
M  V30 10 1 6 11 CFG=3
M  V30 11 1 7 12
M  V30 12 1 13 9
M  V30 13 1 10 14
M  V30 14 1 11 15
M  V30 15 1 13 16 CFG=3
M  V30 16 1 15 17
M  V30 17 1 15 18
M  V30 18 1 16 19
M  V30 19 2 17 20
M  V30 20 2 18 21
M  V30 21 1 19 22
M  V30 22 2 22 23
M  V30 23 1 22 24
M  V30 24 1 23 25
M  V30 25 2 24 26
M  V30 26 2 25 27
M  V30 27 1 27 28
M  V30 28 1 28 29
M  V30 29 1 28 30
M  V30 30 1 29 31
M  V30 31 1 30 32
M  V30 32 1 31 33
M  V30 33 1 33 34
M  V30 34 2 34 35
M  V30 35 1 34 36
M  V30 36 1 35 37
M  V30 37 2 36 38
M  V30 38 2 37 39
M  V30 39 1 39 40
M  V30 40 1 40 41
M  V30 41 1 40 42
M  V30 42 2 41 43
M  V30 43 1 41 44
M  V30 44 2 42 45
M  V30 45 1 46 44 CFG=1
M  V30 46 1 46 47
M  V30 47 1 46 48
M  V30 48 1 47 49
M  V30 49 1 7 8
M  V30 50 1 13 14
M  V30 51 1 20 21
M  V30 52 1 26 27
M  V30 53 1 32 33
M  V30 54 1 38 39
M  V30 55 1 44 45
M  V30 END BOND
M  V30 BEGIN COLLECTION
M  V30 MDLV30/STERAC1 ATOMS=(3 6 13 46)
M  V30 END COLLECTION
M  V30 END CTAB
M  END
>  <Molecule Name>


>  <status>
-

>  <cas>
84625-61-6

>  <name>
ITRACONAZOLE

>  <ID>
671

>  <Smiles>
CC[C@H](C)N(C1=O)N=CN1c(cc1)ccc1N(CC1)CCN1c(cc1)ccc1OC[C@@H]1O[C@@](Cn2ncnc2)(c(ccc(Cl)c2)c2Cl)OC1

$$$$

Actelion Java MolfileCreator 2.0

  0  0  0  0  0  0              0 V3000
M  V30 BEGIN CTAB
M  V30 COUNTS 27 30 0 0 0
M  V30 BEGIN ATOM
M  V30 1 Cl 4.3301 -1.9999 0.0 0
M  V30 2 C 3.4641 -1.4999 0.0 0
M  V30 3 C 3.4641 -0.5 0.0 0
M  V30 4 C 2.598 -1.9999 0.0 0
M  V30 5 C 2.598 0.0 0.0 0
M  V30 6 C 1.732 -1.5 0.0 0
M  V30 7 C 1.732 -0.5 0.0 0
M  V30 8 C 0.866 0.0 0.0 0
M  V30 9 C 0.0 -0.5 0.0 0
M  V30 10 N -0.866 0.0 0.0 0
M  V30 11 C 0.0 -1.4999 0.0 0
M  V30 12 N -1.732 -0.4999 0.0 0
M  V30 13 C -0.866 -1.9999 0.0 0
M  V30 14 C 0.866 -1.9999 0.0 0
M  V30 15 C -1.732 -1.4999 0.0 0
M  V30 16 C -2.598 0.0 0.0 0 CFG=2
M  V30 17 C -0.866 -2.9999 0.0 0
M  V30 18 C 0.866 -3.0 0.0 0
M  V30 19 O -2.598 -1.9999 0.0 0
M  V30 20 C -2.5233 0.9972 0.0 0
M  V30 21 C -3.4243 -0.5633 0.0 0
M  V30 22 C 0.0 -3.4999 0.0 0
M  V30 23 C -3.2563 1.6773 0.0 0
M  V30 24 C -4.3798 -0.2685 0.0 0
M  V30 25 N -4.2452 1.5283 0.0 0
M  V30 26 C -4.7452 0.6623 0.0 0
M  V30 27 C -4.8085 2.3545 0.0 0
M  V30 END ATOM
M  V30 BEGIN BOND
M  V30 1 1 1 2
M  V30 2 2 2 3
M  V30 3 1 2 4
M  V30 4 1 3 5
M  V30 5 2 4 6
M  V30 6 2 5 7
M  V30 7 1 7 8
M  V30 8 1 8 9
M  V30 9 2 9 10
M  V30 10 1 9 11
M  V30 11 1 10 12
M  V30 12 2 11 13
M  V30 13 1 11 14
M  V30 14 1 12 15
M  V30 15 1 16 12 CFG=1
M  V30 16 1 13 17
M  V30 17 2 14 18
M  V30 18 2 15 19
M  V30 19 1 16 20
M  V30 20 1 16 21
M  V30 21 2 17 22
M  V30 22 1 20 23
M  V30 23 1 21 24
M  V30 24 1 23 25
M  V30 25 1 24 26
M  V30 26 1 25 27
M  V30 27 1 6 7
M  V30 28 1 13 15
M  V30 29 1 18 22
M  V30 30 1 25 26
M  V30 END BOND
M  V30 BEGIN COLLECTION
M  V30 MDLV30/STERAC1 ATOMS=(1 16)
M  V30 END COLLECTION
M  V30 END CTAB
M  END
>  <Molecule Name>


>  <status>
-

>  <cas>
58581-89-8

>  <name>
AZELASTINE

>  <ID>
672

>  <Smiles>
CN(CCC1)CCC1N1N=C(Cc(cc2)ccc2Cl)c(cccc2)c2C1=O

$$$$

Actelion Java MolfileCreator 2.0

  0  0  0  0  0  0              0 V3000
M  V30 BEGIN CTAB
M  V30 COUNTS 18 19 0 0 0
M  V30 BEGIN ATOM
M  V30 1 N 4.3301 1.0 0.0 0
M  V30 2 C 4.3301 0.0 0.0 0
M  V30 3 C 5.1961 1.5 0.0 0
M  V30 4 C 5.1961 -0.4999 0.0 0
M  V30 5 C 3.4641 -0.5 0.0 0 CFG=2
M  V30 6 C 6.0621 1.0 0.0 0
M  V30 7 C 6.0621 0.0 0.0 0
M  V30 8 C 3.4641 -1.5 0.0 0
M  V30 9 C 2.598 0.0 0.0 0
M  V30 10 C 2.598 -1.9999 0.0 0
M  V30 11 C 4.3301 -2.0 0.0 0
M  V30 12 C 1.732 -0.5 0.0 0
M  V30 13 C 2.598 -2.9999 0.0 0
M  V30 14 C 4.3301 -3.0 0.0 0
M  V30 15 N 0.866 0.0 0.0 0
M  V30 16 C 3.4641 -3.5 0.0 0
M  V30 17 C 0.866 1.0 0.0 0
M  V30 18 C 0.0 -0.5 0.0 0
M  V30 END ATOM
M  V30 BEGIN BOND
M  V30 1 2 1 2
M  V30 2 1 1 3
M  V30 3 1 2 4
M  V30 4 1 5 2
M  V30 5 2 3 6
M  V30 6 2 4 7
M  V30 7 1 5 8
M  V30 8 1 5 9 CFG=3
M  V30 9 2 8 10
M  V30 10 1 8 11
M  V30 11 1 9 12
M  V30 12 1 10 13
M  V30 13 2 11 14
M  V30 14 1 12 15
M  V30 15 2 13 16
M  V30 16 1 15 17
M  V30 17 1 15 18
M  V30 18 1 6 7
M  V30 19 1 14 16
M  V30 END BOND
M  V30 BEGIN COLLECTION
M  V30 MDLV30/STERAC1 ATOMS=(1 5)
M  V30 END COLLECTION
M  V30 END CTAB
M  END
>  <Molecule Name>


>  <status>
-

>  <cas>
86-21-5

>  <name>
PHENIRAMINE

>  <ID>
673

>  <Smiles>
CN(C)CCC(c1ccccc1)c1ncccc1

$$$$

Actelion Java MolfileCreator 2.0

  0  0  0  0  0  0              0 V3000
M  V30 BEGIN CTAB
M  V30 COUNTS 7 6 0 0 0
M  V30 BEGIN ATOM
M  V30 1 P 1.732 -0.5 0.0 0
M  V30 2 O 1.232 -1.366 0.0 0
M  V30 3 O 2.598 -0.9999 0.0 0 CHG=-1
M  V30 4 O 2.232 0.366 0.0 0 CHG=-1
M  V30 5 C 0.866 0.0 0.0 0
M  V30 6 O 0.866 1.0 0.0 0
M  V30 7 O 0.0 -0.5 0.0 0 CHG=-1
M  V30 END ATOM
M  V30 BEGIN BOND
M  V30 1 2 1 2
M  V30 2 1 1 3
M  V30 3 1 1 4
M  V30 4 1 1 5
M  V30 5 2 5 6
M  V30 6 1 5 7
M  V30 END BOND
M  V30 END CTAB
M  END
>  <Molecule Name>


>  <status>
-

>  <cas>
4428-95-9

>  <name>
FOSCARNET

>  <ID>
674

>  <Smiles>
[O-]C(P([O-])([O-])=O)=O

$$$$

Actelion Java MolfileCreator 2.0

  0  0  0  0  0  0              0 V3000
M  V30 BEGIN CTAB
M  V30 COUNTS 15 17 0 0 0
M  V30 BEGIN ATOM
M  V30 1 N 2.598 0.9999 0.0 0
M  V30 2 C 1.732 1.4999 0.0 0
M  V30 3 C 2.598 0.0 0.0 0
M  V30 4 C 0.866 0.9999 0.0 0
M  V30 5 C 1.732 2.4999 0.0 0
M  V30 6 C 1.732 -0.5 0.0 0
M  V30 7 C 3.4641 -0.4999 0.0 0
M  V30 8 C 0.866 0.0 0.0 0
M  V30 9 C 0.0 1.5 0.0 0
M  V30 10 C 0.866 3.0 0.0 0
M  V30 11 C 1.732 -1.5 0.0 0
M  V30 12 C 3.4641 -1.4999 0.0 0
M  V30 13 N 0.0 -0.5 0.0 0
M  V30 14 C 0.0 2.5 0.0 0
M  V30 15 C 2.598 -1.9999 0.0 0
M  V30 END ATOM
M  V30 BEGIN BOND
M  V30 1 1 1 2
M  V30 2 2 1 3
M  V30 3 1 2 4
M  V30 4 2 2 5
M  V30 5 1 3 6
M  V30 6 1 3 7
M  V30 7 1 4 8
M  V30 8 2 4 9
M  V30 9 1 5 10
M  V30 10 1 6 11
M  V30 11 1 7 12
M  V30 12 1 8 13
M  V30 13 1 9 14
M  V30 14 1 11 15
M  V30 15 2 6 8
M  V30 16 2 10 14
M  V30 17 1 12 15
M  V30 END BOND
M  V30 END CTAB
M  END
>  <Molecule Name>


>  <status>
DISCONTINUED

>  <cas>
321-64-2

>  <name>
TACRINE

>  <ID>
675

>  <Smiles>
Nc1c(CCCC2)c2nc2ccccc12

$$$$

Actelion Java MolfileCreator 2.0

  0  0  0  0  0  0              0 V3000
M  V30 BEGIN CTAB
M  V30 COUNTS 23 26 0 0 0
M  V30 BEGIN ATOM
M  V30 1 O 1.4346 0.4671 0.0 0
M  V30 2 C 2.7735 0.7468 0.0 0 CFG=2
M  V30 3 C 1.6512 1.7573 0.0 0
M  V30 4 C 2.6156 -0.755 0.0 0 CFG=2
M  V30 5 C 4.2506 1.0607 0.0 0
M  V30 6 C 0.5289 2.7677 0.0 0
M  V30 7 C 3.9952 -1.3693 0.0 0 CFG=1
M  V30 8 C 1.3939 -1.6427 0.0 0
M  V30 9 C 1.2723 -0.1307 0.0 0
M  V30 10 C 5.0057 -0.247 0.0 0
M  V30 11 C 4.1531 -2.8712 0.0 0 CFG=1
M  V30 12 C 1.5517 -3.1446 0.0 0
M  V30 13 C 0.0 -0.755 0.0 0
M  V30 14 C 2.9313 -3.7588 0.0 0 CFG=2
M  V30 15 C 5.5327 -3.4854 0.0 0
M  V30 16 C 0.33 -4.0322 0.0 0
M  V30 17 C 3.0892 -5.2607 0.0 0 CFG=2
M  V30 18 C 5.6905 -4.9873 0.0 0
M  V30 19 C 4.4688 -5.8749 0.0 0
M  V30 20 C 1.8674 -6.1483 0.0 0
M  V30 21 C 4.6266 -7.3768 0.0 0
M  V30 22 C 2.0253 -7.6502 0.0 0
M  V30 23 C 3.4049 -8.2645 0.0 0
M  V30 END ATOM
M  V30 BEGIN BOND
M  V30 1 1 2 1 CFG=1
M  V30 2 1 2 3
M  V30 3 1 4 2
M  V30 4 1 2 5
M  V30 5 3 3 6
M  V30 6 1 7 4
M  V30 7 1 4 8
M  V30 8 1 4 9 CFG=1
M  V30 9 1 5 10
M  V30 10 1 11 7
M  V30 11 1 8 12
M  V30 12 1 9 13
M  V30 13 1 14 11
M  V30 14 1 11 15 CFG=3
M  V30 15 2 12 16
M  V30 16 1 17 14
M  V30 17 1 15 18
M  V30 18 1 17 19
M  V30 19 1 17 20 CFG=3
M  V30 20 2 19 21
M  V30 21 1 20 22
M  V30 22 1 21 23
M  V30 23 1 7 10 CFG=1
M  V30 24 1 14 12 CFG=1
M  V30 25 1 18 19
M  V30 26 1 22 23
M  V30 END BOND
M  V30 BEGIN COLLECTION
M  V30 MDLV30/STERAC1 ATOMS=(6 2 4 7 11 14 17)
M  V30 END COLLECTION
M  V30 END CTAB
M  END
>  <Molecule Name>


>  <status>
-

>  <cas>
54024-22-5

>  <name>
DESOGESTREL

>  <ID>
676

>  <Smiles>
CC[C@](C1)([C@@H](CC2)[C@H](CCC3=CCCC[C@H]33)[C@@H]3C1=C)[C@@]2(C#C)O

$$$$

Actelion Java MolfileCreator 2.0

  0  0  0  0  0  0              0 V3000
M  V30 BEGIN CTAB
M  V30 COUNTS 22 24 0 0 0
M  V30 BEGIN ATOM
M  V30 1 F 9.0329 -1.0455 0.0 0
M  V30 2 C 8.0369 -0.9558 0.0 0
M  V30 3 C 7.6165 -0.0485 0.0 0
M  V30 4 C 7.4613 -1.7736 0.0 0
M  V30 5 C 6.6206 0.0411 0.0 0
M  V30 6 C 6.4653 -1.6839 0.0 0
M  V30 7 C 6.3401 1.0009 0.0 0
M  V30 8 C 6.0449 -0.7766 0.0 0
M  V30 9 O 7.0833 1.6701 0.0 0
M  V30 10 N 5.4148 1.3802 0.0 0
M  V30 11 N 5.0467 -0.8364 0.0 0
M  V30 12 C 4.5414 0.8932 0.0 0
M  V30 13 C 5.355 2.3784 0.0 0
M  V30 14 C 4.3776 -0.0932 0.0 0
M  V30 15 C 4.5467 -1.7024 0.0 0
M  V30 16 C 3.4641 -0.5 0.0 0
M  V30 17 N 3.5686 -1.4945 0.0 0
M  V30 18 C 2.598 0.0 0.0 0
M  V30 19 O 2.598 1.0 0.0 0
M  V30 20 O 1.732 -0.5 0.0 0
M  V30 21 C 0.866 0.0 0.0 0
M  V30 22 C 0.0 -0.5 0.0 0
M  V30 END ATOM
M  V30 BEGIN BOND
M  V30 1 1 1 2
M  V30 2 2 2 3
M  V30 3 1 2 4
M  V30 4 1 3 5
M  V30 5 2 4 6
M  V30 6 1 5 7
M  V30 7 2 5 8
M  V30 8 2 7 9
M  V30 9 1 7 10
M  V30 10 1 8 11
M  V30 11 1 10 12
M  V30 12 1 10 13
M  V30 13 1 11 14
M  V30 14 1 11 15
M  V30 15 2 14 16
M  V30 16 2 15 17
M  V30 17 1 16 18
M  V30 18 2 18 19
M  V30 19 1 18 20
M  V30 20 1 20 21
M  V30 21 1 21 22
M  V30 22 1 6 8
M  V30 23 1 12 14
M  V30 24 1 16 17
M  V30 END BOND
M  V30 END CTAB
M  END
>  <Molecule Name>


>  <status>
-

>  <cas>
78755-81-4

>  <name>
FLUMAZENIL

>  <ID>
677

>  <Smiles>
CCOC(c(nc1)c(CN2C)n1-c(ccc(F)c1)c1C2=O)=O

$$$$

Actelion Java MolfileCreator 2.0

  0  0  0  0  0  0              0 V3000
M  V30 BEGIN CTAB
M  V30 COUNTS 49 55 0 0 0
M  V30 BEGIN ATOM
M  V30 1 Cl 2.558 1.3343 0.0 0
M  V30 2 C 3.0956 2.7347 0.0 0
M  V30 3 C 4.5771 2.9693 0.0 0
M  V30 4 C 2.1516 3.9004 0.0 0
M  V30 5 C 5.1146 4.3697 0.0 0
M  V30 6 C 5.5211 1.8036 0.0 0 CFG=2
M  V30 7 C 2.6891 5.3008 0.0 0
M  V30 8 C 4.1707 5.5354 0.0 0
M  V30 9 O 4.0539 1.4917 0.0 0
M  V30 10 O 6.2711 0.5046 0.0 0
M  V30 11 C 6.1312 3.1739 0.0 0
M  V30 12 Cl 1.7452 6.4665 0.0 0
M  V30 13 C 3.8971 0.0 0.0 0 CFG=2
M  V30 14 C 5.2674 -0.6101 0.0 0
M  V30 15 N 7.623 3.3307 0.0 0
M  V30 16 C 2.598 -0.75 0.0 0
M  V30 17 N 8.6267 2.216 0.0 0
M  V30 18 C 8.373 4.6297 0.0 0
M  V30 19 O 1.299 0.0 0.0 0
M  V30 20 C 9.997 2.8261 0.0 0
M  V30 21 N 9.8402 4.3179 0.0 0
M  V30 22 C 0.0 -0.75 0.0 0
M  V30 23 C -1.299 0.0 0.0 0
M  V30 24 C 0.0 -2.2499 0.0 0
M  V30 25 C -2.598 -0.7499 0.0 0
M  V30 26 C -1.299 -2.9999 0.0 0
M  V30 27 C -2.598 -2.2499 0.0 0
M  V30 28 N -3.8971 -2.9999 0.0 0
M  V30 29 C -5.1961 -2.2499 0.0 0
M  V30 30 C -3.8971 -4.4999 0.0 0
M  V30 31 C -6.4951 -2.9999 0.0 0
M  V30 32 C -5.1961 -5.2499 0.0 0
M  V30 33 N -6.4951 -4.4999 0.0 0
M  V30 34 C -7.7942 -5.2499 0.0 0
M  V30 35 C -9.0932 -4.4999 0.0 0
M  V30 36 C -7.7942 -6.7499 0.0 0
M  V30 37 C -10.3923 -5.2499 0.0 0
M  V30 38 C -9.0932 -7.4999 0.0 0
M  V30 39 C -10.3923 -6.7499 0.0 0
M  V30 40 N -11.6913 -7.4999 0.0 0
M  V30 41 C -13.0616 -6.8898 0.0 0
M  V30 42 C -11.8481 -8.9917 0.0 0
M  V30 43 O -13.3735 -5.4226 0.0 0
M  V30 44 N -14.0653 -8.0046 0.0 0
M  V30 45 N -13.3153 -9.3036 0.0 0
M  V30 46 C -15.5571 -7.8478 0.0 0 CFG=1
M  V30 47 C -16.1672 -6.4775 0.0 0
M  V30 48 C -16.4388 -9.0613 0.0 0
M  V30 49 C -17.659 -6.3207 0.0 0
M  V30 END ATOM
M  V30 BEGIN BOND
M  V30 1 1 1 2
M  V30 2 2 2 3
M  V30 3 1 2 4
M  V30 4 1 3 5
M  V30 5 1 6 3
M  V30 6 2 4 7
M  V30 7 2 5 8
M  V30 8 1 6 9
M  V30 9 1 6 10
M  V30 10 1 6 11 CFG=3
M  V30 11 1 7 12
M  V30 12 1 13 9
M  V30 13 1 10 14
M  V30 14 1 11 15
M  V30 15 1 13 16 CFG=3
M  V30 16 1 15 17
M  V30 17 1 15 18
M  V30 18 1 16 19
M  V30 19 2 17 20
M  V30 20 2 18 21
M  V30 21 1 19 22
M  V30 22 2 22 23
M  V30 23 1 22 24
M  V30 24 1 23 25
M  V30 25 2 24 26
M  V30 26 2 25 27
M  V30 27 1 27 28
M  V30 28 1 28 29
M  V30 29 1 28 30
M  V30 30 1 29 31
M  V30 31 1 30 32
M  V30 32 1 31 33
M  V30 33 1 33 34
M  V30 34 2 34 35
M  V30 35 1 34 36
M  V30 36 1 35 37
M  V30 37 2 36 38
M  V30 38 2 37 39
M  V30 39 1 39 40
M  V30 40 1 40 41
M  V30 41 1 40 42
M  V30 42 2 41 43
M  V30 43 1 41 44
M  V30 44 2 42 45
M  V30 45 1 46 44 CFG=3
M  V30 46 1 46 47
M  V30 47 1 46 48
M  V30 48 1 47 49
M  V30 49 1 7 8
M  V30 50 1 13 14
M  V30 51 1 20 21
M  V30 52 1 26 27
M  V30 53 1 32 33
M  V30 54 1 38 39
M  V30 55 1 44 45
M  V30 END BOND
M  V30 BEGIN COLLECTION
M  V30 MDLV30/STERAC1 ATOMS=(3 6 13 46)
M  V30 END COLLECTION
M  V30 END CTAB
M  END
>  <Molecule Name>


>  <status>
-

>  <cas>
84625-61-6

>  <name>
ITRACONAZOLE

>  <ID>
678

>  <Smiles>
CC[C@@H](C)N(C1=O)N=CN1c(cc1)ccc1N(CC1)CCN1c(cc1)ccc1OC[C@@H]1O[C@@](Cn2ncnc2)(c(ccc(Cl)c2)c2Cl)OC1

$$$$

Actelion Java MolfileCreator 2.0

  0  0  0  0  0  0              0 V3000
M  V30 BEGIN CTAB
M  V30 COUNTS 74 79 0 0 0
M  V30 BEGIN ATOM
M  V30 1 O 11.2583 0.0 0.0 0
M  V30 2 C 10.3923 -0.5 0.0 0
M  V30 3 O 10.3923 -1.5 0.0 0
M  V30 4 C 9.5262 0.0 0.0 0
M  V30 5 C 9.5262 -2.0 0.0 0
M  V30 6 C 8.6602 -0.5 0.0 0
M  V30 7 C 9.5262 -3.0 0.0 0
M  V30 8 C 7.7942 0.0 0.0 0
M  V30 9 C 8.6602 -3.5 0.0 0
M  V30 10 C 6.9282 -0.5 0.0 0
M  V30 11 N 8.6602 -4.5 0.0 0 CHG=1 CFG=2
M  V30 12 C 6.0621 0.0 0.0 0
M  V30 13 C 7.7942 -5.0 0.0 0 CFG=2
M  V30 14 C 9.5262 -5.0 0.0 0
M  V30 15 C 9.5262 -4.0 0.0 0
M  V30 16 C 5.1961 -0.5 0.0 0
M  V30 17 C 7.7942 -6.0 0.0 0
M  V30 18 C 6.9282 -4.4999 0.0 0
M  V30 19 C 9.5262 -6.0 0.0 0
M  V30 20 C 4.3301 0.0 0.0 0
M  V30 21 C 8.6602 -6.5 0.0 0
M  V30 22 C 6.9282 -6.4999 0.0 0
M  V30 23 C 6.0621 -4.9999 0.0 0
M  V30 24 O 4.3301 1.0 0.0 0
M  V30 25 O 3.4641 -0.5 0.0 0
M  V30 26 C 8.6602 -7.5 0.0 0
M  V30 27 C 6.9282 -7.4999 0.0 0
M  V30 28 C 5.1961 -4.4999 0.0 0
M  V30 29 C 6.0621 -5.9999 0.0 0
M  V30 30 C 2.598 0.0 0.0 0
M  V30 31 C 7.7942 -8.0 0.0 0
M  V30 32 O 6.0621 -7.9999 0.0 0
M  V30 33 C 4.3301 -4.9999 0.0 0
M  V30 34 C 5.1961 -6.4999 0.0 0
M  V30 35 C 1.732 -0.5 0.0 0
M  V30 36 O 7.7942 -9.0 0.0 0
M  V30 37 C 6.0621 -8.9999 0.0 0
M  V30 38 O 3.4641 -4.4999 0.0 0
M  V30 39 C 4.3301 -5.9999 0.0 0
M  V30 40 O 5.1961 -7.4999 0.0 0
M  V30 41 C 0.866 0.0 0.0 0
M  V30 42 C 8.6602 -9.5 0.0 0
M  V30 43 C 2.598 -4.9999 0.0 0
M  V30 44 O 3.4641 -6.4999 0.0 0
M  V30 45 C 4.3301 -7.9999 0.0 0
M  V30 46 N 0.0 -0.5 0.0 0 CHG=1 CFG=2
M  V30 47 C 3.4641 -7.4999 0.0 0
M  V30 48 C -0.866 0.0 0.0 0 CFG=2
M  V30 49 C 0.0 -1.4999 0.0 0
M  V30 50 C 0.866 -1.0 0.0 0
M  V30 51 C -1.732 -0.4999 0.0 0
M  V30 52 C -0.866 1.0 0.0 0
M  V30 53 C -0.866 -1.9999 0.0 0
M  V30 54 C -1.732 -1.4999 0.0 0
M  V30 55 C -2.598 0.0 0.0 0
M  V30 56 C 0.0 1.5 0.0 0
M  V30 57 C -2.598 -1.9999 0.0 0
M  V30 58 C -3.4641 -0.4999 0.0 0
M  V30 59 C 0.0 2.5 0.0 0
M  V30 60 C 0.866 1.0 0.0 0
M  V30 61 C -3.4641 -1.4999 0.0 0
M  V30 62 O -4.3301 0.0 0.0 0
M  V30 63 C 0.866 3.0 0.0 0
M  V30 64 C 1.732 1.4999 0.0 0
M  V30 65 O -4.3301 -1.9999 0.0 0
M  V30 66 C -5.1961 -0.4999 0.0 0
M  V30 67 O 0.866 4.0 0.0 0
M  V30 68 C 1.732 2.5 0.0 0
M  V30 69 O 2.598 1.0 0.0 0
M  V30 70 C -4.3301 -2.9999 0.0 0
M  V30 71 C 1.732 4.4999 0.0 0
M  V30 72 O 2.598 2.9999 0.0 0
M  V30 73 C 3.4641 1.5 0.0 0
M  V30 74 C 3.4641 2.4999 0.0 0
M  V30 END ATOM
M  V30 BEGIN BOND
M  V30 1 2 1 2
M  V30 2 1 2 3
M  V30 3 1 2 4
M  V30 4 1 3 5
M  V30 5 1 4 6
M  V30 6 1 5 7
M  V30 7 1 6 8
M  V30 8 1 7 9
M  V30 9 2 8 10
M  V30 10 1 11 9
M  V30 11 1 10 12
M  V30 12 1 13 11
M  V30 13 1 11 14
M  V30 14 1 11 15 CFG=3
M  V30 15 1 12 16
M  V30 16 1 13 17
M  V30 17 1 13 18 CFG=3
M  V30 18 1 14 19
M  V30 19 1 16 20
M  V30 20 2 17 21
M  V30 21 1 17 22
M  V30 22 1 18 23
M  V30 23 2 20 24
M  V30 24 1 20 25
M  V30 25 1 21 26
M  V30 26 2 22 27
M  V30 27 2 23 28
M  V30 28 1 23 29
M  V30 29 1 25 30
M  V30 30 2 26 31
M  V30 31 1 27 32
M  V30 32 1 28 33
M  V30 33 2 29 34
M  V30 34 1 30 35
M  V30 35 1 31 36
M  V30 36 1 32 37
M  V30 37 1 33 38
M  V30 38 2 33 39
M  V30 39 1 34 40
M  V30 40 1 35 41
M  V30 41 1 36 42
M  V30 42 1 38 43
M  V30 43 1 39 44
M  V30 44 1 40 45
M  V30 45 1 46 41
M  V30 46 1 44 47
M  V30 47 1 48 46
M  V30 48 1 46 49
M  V30 49 1 46 50 CFG=3
M  V30 50 1 48 51
M  V30 51 1 48 52 CFG=3
M  V30 52 1 49 53
M  V30 53 2 51 54
M  V30 54 1 51 55
M  V30 55 1 52 56
M  V30 56 1 54 57
M  V30 57 2 55 58
M  V30 58 2 56 59
M  V30 59 1 56 60
M  V30 60 2 57 61
M  V30 61 1 58 62
M  V30 62 1 59 63
M  V30 63 2 60 64
M  V30 64 1 61 65
M  V30 65 1 62 66
M  V30 66 1 63 67
M  V30 67 2 63 68
M  V30 68 1 64 69
M  V30 69 1 65 70
M  V30 70 1 67 71
M  V30 71 1 68 72
M  V30 72 1 69 73
M  V30 73 1 72 74
M  V30 74 1 19 21
M  V30 75 1 27 31
M  V30 76 1 34 39
M  V30 77 1 53 54
M  V30 78 1 58 61
M  V30 79 1 64 68
M  V30 END BOND
M  V30 BEGIN COLLECTION
M  V30 MDLV30/STERAC1 ATOMS=(4 11 13 46 48)
M  V30 END COLLECTION
M  V30 END CTAB
M  END
>  <Molecule Name>


>  <status>
-

>  <cas>
133814-19-4

>  <name>
MIVACURIUM

>  <ID>
679

>  <Smiles>
C[N@+](CCCOC(CC/C=C/CCC(OCCC[N@@+](C)(CC1)[C@@H](Cc(cc2OC)cc(OC)c2OC)c(cc2OC)c1cc2OC)=O)=O)(CC1)[C@@H](Cc(cc2OC)cc(OC)c2OC)c(cc2OC)c1cc2OC

$$$$

Actelion Java MolfileCreator 2.0

  0  0  0  0  0  0              0 V3000
M  V30 BEGIN CTAB
M  V30 COUNTS 27 30 0 0 0
M  V30 BEGIN ATOM
M  V30 1 Cl 4.3301 -1.9999 0.0 0
M  V30 2 C 3.4641 -1.4999 0.0 0
M  V30 3 C 3.4641 -0.5 0.0 0
M  V30 4 C 2.598 -1.9999 0.0 0
M  V30 5 C 2.598 0.0 0.0 0
M  V30 6 C 1.732 -1.5 0.0 0
M  V30 7 C 1.732 -0.5 0.0 0
M  V30 8 C 0.866 0.0 0.0 0
M  V30 9 C 0.0 -0.5 0.0 0
M  V30 10 N -0.866 0.0 0.0 0
M  V30 11 C 0.0 -1.4999 0.0 0
M  V30 12 N -1.732 -0.4999 0.0 0
M  V30 13 C -0.866 -1.9999 0.0 0
M  V30 14 C 0.866 -1.9999 0.0 0
M  V30 15 C -1.732 -1.4999 0.0 0
M  V30 16 C -2.598 0.0 0.0 0 CFG=2
M  V30 17 C -0.866 -2.9999 0.0 0
M  V30 18 C 0.866 -3.0 0.0 0
M  V30 19 O -2.598 -1.9999 0.0 0
M  V30 20 C -2.5233 0.9972 0.0 0
M  V30 21 C -3.4243 -0.5633 0.0 0
M  V30 22 C 0.0 -3.4999 0.0 0
M  V30 23 C -3.2563 1.6773 0.0 0
M  V30 24 C -4.3798 -0.2685 0.0 0
M  V30 25 N -4.2452 1.5283 0.0 0
M  V30 26 C -4.7452 0.6623 0.0 0
M  V30 27 C -4.8085 2.3545 0.0 0
M  V30 END ATOM
M  V30 BEGIN BOND
M  V30 1 1 1 2
M  V30 2 2 2 3
M  V30 3 1 2 4
M  V30 4 1 3 5
M  V30 5 2 4 6
M  V30 6 2 5 7
M  V30 7 1 7 8
M  V30 8 1 8 9
M  V30 9 2 9 10
M  V30 10 1 9 11
M  V30 11 1 10 12
M  V30 12 2 11 13
M  V30 13 1 11 14
M  V30 14 1 12 15
M  V30 15 1 16 12 CFG=1
M  V30 16 1 13 17
M  V30 17 2 14 18
M  V30 18 2 15 19
M  V30 19 1 16 20
M  V30 20 1 16 21
M  V30 21 2 17 22
M  V30 22 1 20 23
M  V30 23 1 21 24
M  V30 24 1 23 25
M  V30 25 1 24 26
M  V30 26 1 25 27
M  V30 27 1 6 7
M  V30 28 1 13 15
M  V30 29 1 18 22
M  V30 30 1 25 26
M  V30 END BOND
M  V30 BEGIN COLLECTION
M  V30 MDLV30/STERAC1 ATOMS=(1 16)
M  V30 END COLLECTION
M  V30 END CTAB
M  END
>  <Molecule Name>


>  <status>
-

>  <cas>
58581-89-8

>  <name>
AZELASTINE

>  <ID>
680

>  <Smiles>
CN(CCC1)CCC1N1N=C(Cc(cc2)ccc2Cl)c(cccc2)c2C1=O

$$$$

Actelion Java MolfileCreator 2.0

  0  0  0  0  0  0              0 V3000
M  V30 BEGIN CTAB
M  V30 COUNTS 10 9 0 0 0
M  V30 BEGIN ATOM
M  V30 1 F 3.9641 0.366 0.0 0
M  V30 2 C 3.4641 -0.5 0.0 0
M  V30 3 F 4.3301 -0.9999 0.0 0
M  V30 4 F 2.9641 -1.366 0.0 0
M  V30 5 C 2.598 0.0 0.0 0 CFG=2
M  V30 6 F 2.598 1.0 0.0 0
M  V30 7 O 1.732 -0.5 0.0 0
M  V30 8 C 0.866 0.0 0.0 0
M  V30 9 F 0.866 1.0 0.0 0
M  V30 10 F 0.0 -0.5 0.0 0
M  V30 END ATOM
M  V30 BEGIN BOND
M  V30 1 1 1 2
M  V30 2 1 2 3
M  V30 3 1 2 4
M  V30 4 1 5 2
M  V30 5 1 5 6 CFG=1
M  V30 6 1 5 7
M  V30 7 1 7 8
M  V30 8 1 8 9
M  V30 9 1 8 10
M  V30 END BOND
M  V30 BEGIN COLLECTION
M  V30 MDLV30/STERAC1 ATOMS=(1 5)
M  V30 END COLLECTION
M  V30 END CTAB
M  END
>  <Molecule Name>


>  <status>
-

>  <cas>
57041-67-5

>  <name>
DESFLURANE

>  <ID>
681

>  <Smiles>
FC(C(F)(F)F)OC(F)F

$$$$

Actelion Java MolfileCreator 2.0

  0  0  0  0  0  0              0 V3000
M  V30 BEGIN CTAB
M  V30 COUNTS 46 53 0 0 0
M  V30 BEGIN ATOM
M  V30 1 S 6.1096 -3.0932 0.0 0
M  V30 2 C 5.1961 -3.5 0.0 0
M  V30 3 C 6.7788 -3.8364 0.0 0
M  V30 4 C 5.3006 -4.4945 0.0 0
M  V30 5 C 4.3301 -3.0 0.0 0 CFG=2
M  V30 6 C 6.2788 -4.7024 0.0 0
M  V30 7 O 4.3301 -1.9999 0.0 0
M  V30 8 O 3.4641 -3.5 0.0 0
M  V30 9 C 3.4641 -1.4999 0.0 0 CFG=2
M  V30 10 C 2.598 -2.9999 0.0 0
M  V30 11 C 3.4641 -0.5 0.0 0 CFG=1
M  V30 12 C 2.598 -1.9999 0.0 0 CFG=2
M  V30 13 O 4.3301 0.0 0.0 0
M  V30 14 C 2.598 0.0 0.0 0 CFG=2
M  V30 15 O 1.732 -1.4999 0.0 0
M  V30 16 O 2.598 1.0 0.0 0
M  V30 17 C 1.732 -0.5 0.0 0 CFG=2
M  V30 18 O 0.866 0.0 0.0 0
M  V30 19 C 0.0 -0.5 0.0 0 CFG=1
M  V30 20 C -0.866 0.0 0.0 0
M  V30 21 C 0.0 -1.4999 0.0 0 CFG=1
M  V30 22 C -1.732 -0.4999 0.0 0
M  V30 23 C -0.866 0.9999 0.0 0
M  V30 24 C -0.866 -1.9999 0.0 0 CFG=2
M  V30 25 C 0.7431 -2.1691 0.0 0
M  V30 26 C -2.598 0.0 0.0 0
M  V30 27 C -1.732 -1.4999 0.0 0 CFG=1
M  V30 28 C -1.732 1.5 0.0 0
M  V30 29 C -0.6581 -2.9781 0.0 0
M  V30 30 O 0.3364 -3.0826 0.0 0
M  V30 31 C -2.598 1.0 0.0 0
M  V30 32 C -2.598 -1.9999 0.0 0
M  V30 33 O -1.9399 2.4781 0.0 0
M  V30 34 O -1.3272 -3.7212 0.0 0
M  V30 35 O -3.3412 1.6691 0.0 0
M  V30 36 C -3.4641 -1.4999 0.0 0
M  V30 37 C -2.598 -2.9999 0.0 0
M  V30 38 C -2.9344 2.5826 0.0 0
M  V30 39 C -4.3301 -1.9999 0.0 0
M  V30 40 C -3.4641 -3.4999 0.0 0
M  V30 41 O -5.1961 -1.4999 0.0 0
M  V30 42 C -4.3301 -2.9999 0.0 0
M  V30 43 O -3.4641 -4.4999 0.0 0
M  V30 44 C -6.0621 -1.9999 0.0 0
M  V30 45 O -5.1961 -3.4999 0.0 0
M  V30 46 C -2.598 -5.0 0.0 0
M  V30 END ATOM
M  V30 BEGIN BOND
M  V30 1 1 1 2
M  V30 2 1 1 3
M  V30 3 2 2 4
M  V30 4 1 5 2 CFG=1
M  V30 5 2 3 6
M  V30 6 1 5 7
M  V30 7 1 5 8
M  V30 8 1 9 7 CFG=1
M  V30 9 1 8 10
M  V30 10 1 11 9
M  V30 11 1 12 9
M  V30 12 1 11 13 CFG=3
M  V30 13 1 14 11
M  V30 14 1 12 15 CFG=3
M  V30 15 1 14 16 CFG=1
M  V30 16 1 17 14
M  V30 17 1 17 18 CFG=3
M  V30 18 1 19 18 CFG=3
M  V30 19 1 19 20
M  V30 20 1 21 19
M  V30 21 2 20 22
M  V30 22 1 20 23
M  V30 23 1 24 21
M  V30 24 1 21 25 CFG=3
M  V30 25 1 22 26
M  V30 26 1 27 22
M  V30 27 2 23 28
M  V30 28 1 24 29 CFG=1
M  V30 29 1 25 30
M  V30 30 2 26 31
M  V30 31 1 27 32 CFG=1
M  V30 32 1 28 33
M  V30 33 2 29 34
M  V30 34 1 31 35
M  V30 35 2 32 36
M  V30 36 1 32 37
M  V30 37 1 33 38
M  V30 38 1 36 39
M  V30 39 2 37 40
M  V30 40 1 39 41
M  V30 41 2 39 42
M  V30 42 1 40 43
M  V30 43 1 41 44
M  V30 44 1 42 45
M  V30 45 1 43 46
M  V30 46 1 4 6
M  V30 47 1 10 12
M  V30 48 1 15 17
M  V30 49 1 24 27
M  V30 50 1 28 31
M  V30 51 1 29 30
M  V30 52 1 35 38
M  V30 53 1 40 42
M  V30 END BOND
M  V30 BEGIN COLLECTION
M  V30 MDLV30/STERAC1 ATOMS=(10 5 9 11 12 14 17 19 21 24 27)
M  V30 END COLLECTION
M  V30 END CTAB
M  END
>  <Molecule Name>


>  <status>
DISCONTINUED

>  <cas>
29767-20-2

>  <name>
TENIPOSIDE

>  <ID>
682

>  <Smiles>
COc1cc([C@H]([C@@H]([C@@H](CO2)[C@H]3O[C@H]([C@H]([C@@H]4O)O)O[C@@H]5[C@@H]4O[C@@H](c4cccs4)OC5)C2=O)c2c3cc3OCOc3c2)cc(OC)c1O

$$$$

Actelion Java MolfileCreator 2.0

  0  0  0  0  0  0              0 V3000
M  V30 BEGIN CTAB
M  V30 COUNTS 19 21 0 0 0
M  V30 BEGIN ATOM
M  V30 1 O 1.8365 -1.4945 0.0 0
M  V30 2 C 2.8147 -1.7024 0.0 0 CFG=2
M  V30 3 C 1.732 -0.5 0.0 0 CFG=2
M  V30 4 N 3.2214 -2.6159 0.0 0
M  V30 5 C 3.3147 -0.8364 0.0 0
M  V30 6 C 2.6455 -0.0932 0.0 0 CFG=2
M  V30 7 C 0.866 0.0 0.0 0
M  V30 8 C 2.7214 -3.482 0.0 0
M  V30 9 C 4.1996 -2.8238 0.0 0
M  V30 10 O 2.8535 0.8848 0.0 0
M  V30 11 O 0.0 -0.5 0.0 0
M  V30 12 N 1.7232 -3.5418 0.0 0
M  V30 13 C 3.3905 -4.2251 0.0 0
M  V30 14 N 4.3041 -3.8184 0.0 0
M  V30 15 C 1.1476 -4.3595 0.0 0
M  V30 16 C 3.2267 -5.2116 0.0 0 CFG=1
M  V30 17 N 1.428 -5.3194 0.0 0
M  V30 18 O 4.0444 -5.7872 0.0 0
M  V30 19 C 2.3533 -5.6986 0.0 0
M  V30 END ATOM
M  V30 BEGIN BOND
M  V30 1 1 2 1
M  V30 2 1 3 1
M  V30 3 1 2 4 CFG=1
M  V30 4 1 2 5
M  V30 5 1 6 3
M  V30 6 1 3 7 CFG=1
M  V30 7 1 4 8
M  V30 8 1 4 9
M  V30 9 1 6 10 CFG=1
M  V30 10 1 7 11
M  V30 11 1 8 12
M  V30 12 2 8 13
M  V30 13 2 9 14
M  V30 14 1 12 15
M  V30 15 1 16 13
M  V30 16 2 15 17
M  V30 17 1 16 18 CFG=1
M  V30 18 1 16 19
M  V30 19 1 5 6
M  V30 20 1 13 14
M  V30 21 1 17 19
M  V30 END BOND
M  V30 BEGIN COLLECTION
M  V30 MDLV30/STERAC1 ATOMS=(4 2 3 6 16)
M  V30 END COLLECTION
M  V30 END CTAB
M  END
>  <Molecule Name>


>  <status>
-

>  <cas>
53910-25-1

>  <name>
PENTOSTATIN

>  <ID>
683

>  <Smiles>
OC[C@@H]([C@H](C1)O)O[C@@H]1n1c(NC=NC[C@@H]2O)c2nc1

$$$$

Actelion Java MolfileCreator 2.0

  0  0  0  0  0  0              0 V3000
M  V30 BEGIN CTAB
M  V30 COUNTS 31 35 0 0 0
M  V30 BEGIN ATOM
M  V30 1 O -2.5148 8.3084 0.0 0
M  V30 2 C -1.6306 7.0914 0.0 0
M  V30 3 C -0.1345 7.2487 0.0 0
M  V30 4 C -2.2424 5.7172 0.0 0
M  V30 5 C 0.7495 6.0317 0.0 0
M  V30 6 C -1.3582 4.5002 0.0 0
M  V30 7 C 0.1377 4.6574 0.0 0 CFG=2
M  V30 8 C 2.2456 6.1889 0.0 0
M  V30 9 C 1.0219 3.4405 0.0 0 CFG=1
M  V30 10 C -0.474 3.2832 0.0 0
M  V30 11 C 3.1298 4.9719 0.0 0
M  V30 12 C 0.4101 2.0662 0.0 0 CFG=1
M  V30 13 C 2.5179 3.5977 0.0 0 CFG=1
M  V30 14 O -1.0859 1.909 0.0 0
M  V30 15 C 1.2942 0.8493 0.0 0
M  V30 16 C 3.4021 2.3807 0.0 0 CFG=1
M  V30 17 C 2.7903 1.0065 0.0 0 CFG=1
M  V30 18 C 4.8981 2.2235 0.0 0
M  V30 19 C 3.9082 0.0 0.0 0 CFG=1
M  V30 20 C 2.3067 -0.2549 0.0 0
M  V30 21 C 5.2109 0.7521 0.0 0 CFG=2
M  V30 22 O 4.2209 -1.4713 0.0 0
M  V30 23 C 2.6498 -0.8259 0.0 0
M  V30 24 O 6.3288 -0.2544 0.0 0
M  V30 25 C 5.7169 -1.6286 0.0 0 CFG=1
M  V30 26 O 2.6054 -2.2564 0.0 0
M  V30 27 C 1.3027 0.0 0.0 0
M  V30 28 C 6.4691 -2.9313 0.0 0
M  V30 29 O 0.0 -0.7521 0.0 0
M  V30 30 C 5.7169 -4.2341 0.0 0
M  V30 31 C 6.4691 -5.5368 0.0 0
M  V30 END ATOM
M  V30 BEGIN BOND
M  V30 1 2 1 2
M  V30 2 1 2 3
M  V30 3 1 2 4
M  V30 4 2 3 5
M  V30 5 2 4 6
M  V30 6 1 7 5
M  V30 7 1 5 8
M  V30 8 1 9 7
M  V30 9 1 7 10 CFG=3
M  V30 10 1 8 11
M  V30 11 1 9 12 CFG=3
M  V30 12 1 13 9
M  V30 13 1 12 14 CFG=3
M  V30 14 1 12 15
M  V30 15 1 16 13
M  V30 16 1 17 15
M  V30 17 1 16 18 CFG=3
M  V30 18 1 19 17
M  V30 19 1 17 20 CFG=3
M  V30 20 1 21 18
M  V30 21 1 19 22
M  V30 22 1 19 23 CFG=3
M  V30 23 1 21 24 CFG=1
M  V30 24 1 25 22
M  V30 25 2 23 26
M  V30 26 1 23 27
M  V30 27 1 25 28 CFG=1
M  V30 28 1 27 29
M  V30 29 1 28 30
M  V30 30 1 30 31
M  V30 31 1 6 7
M  V30 32 1 13 11 CFG=1
M  V30 33 1 16 17
M  V30 34 1 19 21
M  V30 35 1 24 25
M  V30 END BOND
M  V30 BEGIN COLLECTION
M  V30 MDLV30/STERAC1 ATOMS=(9 7 9 12 13 16 17 19 21 25)
M  V30 END COLLECTION
M  V30 END CTAB
M  END
>  <Molecule Name>


>  <status>
-

>  <cas>
51333-22-3

>  <name>
BUDESONIDE

>  <ID>
684

>  <Smiles>
CCC[C@H](O[C@@H]1C[C@@H]([C@H](CC2)[C@H]3[C@@](C)(C=C4)C2=CC4=O)[C@]2(C)C[C@@H]3O)O[C@@]12C(CO)=O

$$$$

Actelion Java MolfileCreator 2.0

  0  0  0  0  0  0              0 V3000
M  V30 BEGIN CTAB
M  V30 COUNTS 20 21 0 0 0
M  V30 BEGIN ATOM
M  V30 1 O 6.0621 -2.0 0.0 0
M  V30 2 C 5.1961 -1.4999 0.0 0
M  V30 3 C 6.9282 -1.5 0.0 0
M  V30 4 C 5.1961 -0.5 0.0 0
M  V30 5 C 4.3301 -1.9999 0.0 0
M  V30 6 C 4.3301 0.0 0.0 0
M  V30 7 C 3.4641 -1.5 0.0 0
M  V30 8 C 3.4641 -0.5 0.0 0
M  V30 9 C 2.598 0.0 0.0 0 CFG=2
M  V30 10 C 2.598 1.0 0.0 0
M  V30 11 C 1.732 -0.5 0.0 0
M  V30 12 O 1.732 0.4999 0.0 0
M  V30 13 C 3.4641 1.5 0.0 0
M  V30 14 C 1.732 1.4999 0.0 0
M  V30 15 N 0.866 0.0 0.0 0
M  V30 16 C 3.4641 2.5 0.0 0
M  V30 17 C 1.732 2.5 0.0 0
M  V30 18 C 0.866 1.0 0.0 0
M  V30 19 C 0.0 -0.5 0.0 0
M  V30 20 C 2.598 3.0 0.0 0
M  V30 END ATOM
M  V30 BEGIN BOND
M  V30 1 1 1 2
M  V30 2 1 1 3
M  V30 3 2 2 4
M  V30 4 1 2 5
M  V30 5 1 4 6
M  V30 6 2 5 7
M  V30 7 2 6 8
M  V30 8 1 9 8
M  V30 9 1 9 10
M  V30 10 1 9 11 CFG=1
M  V30 11 1 10 12
M  V30 12 1 10 13
M  V30 13 1 10 14
M  V30 14 1 11 15
M  V30 15 1 13 16
M  V30 16 1 14 17
M  V30 17 1 15 18
M  V30 18 1 15 19
M  V30 19 1 16 20
M  V30 20 1 7 8
M  V30 21 1 17 20
M  V30 END BOND
M  V30 BEGIN COLLECTION
M  V30 MDLV30/STERAC1 ATOMS=(1 9)
M  V30 END COLLECTION
M  V30 END CTAB
M  END
>  <Molecule Name>


>  <status>
-

>  <cas>
93413-69-5

>  <name>
VENLAFAXINE

>  <ID>
685

>  <Smiles>
CN(C)CC(C1(CCCCC1)O)c(cc1)ccc1OC

$$$$

Actelion Java MolfileCreator 2.0

  0  0  0  0  0  0              0 V3000
M  V30 BEGIN CTAB
M  V30 COUNTS 20 21 0 0 0
M  V30 BEGIN ATOM
M  V30 1 O 6.0621 -2.0 0.0 0
M  V30 2 C 5.1961 -1.4999 0.0 0
M  V30 3 C 6.9282 -1.5 0.0 0
M  V30 4 C 5.1961 -0.5 0.0 0
M  V30 5 C 4.3301 -1.9999 0.0 0
M  V30 6 C 4.3301 0.0 0.0 0
M  V30 7 C 3.4641 -1.5 0.0 0
M  V30 8 C 3.4641 -0.5 0.0 0
M  V30 9 C 2.598 0.0 0.0 0 CFG=2
M  V30 10 C 2.598 1.0 0.0 0
M  V30 11 C 1.732 -0.5 0.0 0
M  V30 12 O 1.732 0.4999 0.0 0
M  V30 13 C 3.4641 1.5 0.0 0
M  V30 14 C 1.732 1.4999 0.0 0
M  V30 15 N 0.866 0.0 0.0 0
M  V30 16 C 3.4641 2.5 0.0 0
M  V30 17 C 1.732 2.5 0.0 0
M  V30 18 C 0.866 1.0 0.0 0
M  V30 19 C 0.0 -0.5 0.0 0
M  V30 20 C 2.598 3.0 0.0 0
M  V30 END ATOM
M  V30 BEGIN BOND
M  V30 1 1 1 2
M  V30 2 1 1 3
M  V30 3 2 2 4
M  V30 4 1 2 5
M  V30 5 1 4 6
M  V30 6 2 5 7
M  V30 7 2 6 8
M  V30 8 1 9 8
M  V30 9 1 9 10
M  V30 10 1 9 11 CFG=1
M  V30 11 1 10 12
M  V30 12 1 10 13
M  V30 13 1 10 14
M  V30 14 1 11 15
M  V30 15 1 13 16
M  V30 16 1 14 17
M  V30 17 1 15 18
M  V30 18 1 15 19
M  V30 19 1 16 20
M  V30 20 1 7 8
M  V30 21 1 17 20
M  V30 END BOND
M  V30 BEGIN COLLECTION
M  V30 MDLV30/STERAC1 ATOMS=(1 9)
M  V30 END COLLECTION
M  V30 END CTAB
M  END
>  <Molecule Name>


>  <status>
-

>  <cas>
93413-69-5

>  <name>
VENLAFAXINE

>  <ID>
686

>  <Smiles>
CN(C)CC(C1(CCCCC1)O)c(cc1)ccc1OC

$$$$

Actelion Java MolfileCreator 2.0

  0  0  0  0  0  0              0 V3000
M  V30 BEGIN CTAB
M  V30 COUNTS 33 36 0 0 0
M  V30 BEGIN ATOM
M  V30 1 Cl 8.6602 -1.4999 0.0 0
M  V30 2 C 7.7942 -2.0 0.0 0
M  V30 3 C 6.9282 -1.4999 0.0 0
M  V30 4 C 7.7942 -3.0 0.0 0
M  V30 5 C 6.0621 -2.0 0.0 0
M  V30 6 C 6.9282 -3.4999 0.0 0
M  V30 7 N 5.1961 -1.4999 0.0 0
M  V30 8 C 6.0621 -3.0 0.0 0
M  V30 9 C 5.1961 -0.5 0.0 0
M  V30 10 C 4.3301 -1.9999 0.0 0
M  V30 11 C 4.3301 0.0 0.0 0
M  V30 12 C 3.4641 -1.5 0.0 0
M  V30 13 N 3.4641 -0.5 0.0 0
M  V30 14 C 2.598 0.0 0.0 0
M  V30 15 C 1.732 -0.5 0.0 0
M  V30 16 C 0.866 0.0 0.0 0
M  V30 17 N 0.0 -0.5 0.0 0
M  V30 18 N -0.9135 -0.0932 0.0 0
M  V30 19 C -0.1045 -1.4945 0.0 0
M  V30 20 C -1.5826 -0.8364 0.0 0
M  V30 21 O 0.6386 -2.1636 0.0 0
M  V30 22 N -1.0826 -1.7024 0.0 0
M  V30 23 C -2.5771 -0.7318 0.0 0
M  V30 24 C -1.4894 -2.6159 0.0 0
M  V30 25 C -3.1649 -1.5408 0.0 0
M  V30 26 C -0.9016 -3.4249 0.0 0
M  V30 27 O -1.3083 -4.3385 0.0 0
M  V30 28 C -0.7205 -5.1475 0.0 0
M  V30 29 C -1.1273 -6.0611 0.0 0
M  V30 30 C 0.2739 -5.043 0.0 0
M  V30 31 C -0.5395 -6.8701 0.0 0
M  V30 32 C 0.8617 -5.852 0.0 0
M  V30 33 C 0.4549 -6.7655 0.0 0
M  V30 END ATOM
M  V30 BEGIN BOND
M  V30 1 1 1 2
M  V30 2 2 2 3
M  V30 3 1 2 4
M  V30 4 1 3 5
M  V30 5 2 4 6
M  V30 6 1 5 7
M  V30 7 2 5 8
M  V30 8 1 7 9
M  V30 9 1 7 10
M  V30 10 1 9 11
M  V30 11 1 10 12
M  V30 12 1 11 13
M  V30 13 1 13 14
M  V30 14 1 14 15
M  V30 15 1 15 16
M  V30 16 1 16 17
M  V30 17 1 17 18
M  V30 18 1 17 19
M  V30 19 2 18 20
M  V30 20 2 19 21
M  V30 21 1 19 22
M  V30 22 1 20 23
M  V30 23 1 22 24
M  V30 24 1 23 25
M  V30 25 1 24 26
M  V30 26 1 26 27
M  V30 27 1 27 28
M  V30 28 2 28 29
M  V30 29 1 28 30
M  V30 30 1 29 31
M  V30 31 2 30 32
M  V30 32 2 31 33
M  V30 33 1 6 8
M  V30 34 1 12 13
M  V30 35 1 20 22
M  V30 36 1 32 33
M  V30 END BOND
M  V30 END CTAB
M  END
>  <Molecule Name>


>  <status>
-

>  <cas>
83366-66-9

>  <name>
NEFAZODONE

>  <ID>
687

>  <Smiles>
CCC(N1CCOc2ccccc2)=NN(CCCN(CC2)CCN2c2cccc(Cl)c2)C1=O

$$$$

Actelion Java MolfileCreator 2.0

  0  0  0  0  0  0              0 V3000
M  V30 BEGIN CTAB
M  V30 COUNTS 17 19 0 0 0
M  V30 BEGIN ATOM
M  V30 1 O 7.6144 -1.2493 0.0 0
M  V30 2 C 6.7009 -1.656 0.0 0
M  V30 3 N 6.5964 -2.6505 0.0 0
M  V30 4 C 5.8919 -1.0682 0.0 0
M  V30 5 C 5.6828 -3.0573 0.0 0
M  V30 6 N 5.7873 -0.0737 0.0 0
M  V30 7 C 4.9783 -1.475 0.0 0
M  V30 8 N 4.8738 -2.4695 0.0 0
M  V30 9 C 4.8092 0.1341 0.0 0
M  V30 10 N 4.3092 -0.7318 0.0 0
M  V30 11 C 3.3147 -0.8364 0.0 0 CFG=1
M  V30 12 O 2.6455 -0.0932 0.0 0
M  V30 13 C 2.8147 -1.7024 0.0 0
M  V30 14 C 1.732 -0.5 0.0 0 CFG=2
M  V30 15 C 1.8365 -1.4945 0.0 0
M  V30 16 C 0.866 0.0 0.0 0
M  V30 17 O 0.0 -0.5 0.0 0
M  V30 END ATOM
M  V30 BEGIN BOND
M  V30 1 2 1 2
M  V30 2 1 2 3
M  V30 3 1 2 4
M  V30 4 2 3 5
M  V30 5 1 4 6
M  V30 6 2 4 7
M  V30 7 1 5 8
M  V30 8 2 6 9
M  V30 9 1 7 10
M  V30 10 1 11 10 CFG=3
M  V30 11 1 11 12
M  V30 12 1 11 13
M  V30 13 1 14 12
M  V30 14 1 13 15
M  V30 15 1 14 16 CFG=3
M  V30 16 1 16 17
M  V30 17 1 7 8
M  V30 18 1 9 10
M  V30 19 1 14 15
M  V30 END BOND
M  V30 BEGIN COLLECTION
M  V30 MDLV30/STERAC1 ATOMS=(2 11 14)
M  V30 END COLLECTION
M  V30 END CTAB
M  END
>  <Molecule Name>


>  <status>
DISCONTINUED

>  <cas>
69655-05-6

>  <name>
DIDANOSINE

>  <ID>
688

>  <Smiles>
OC[C@@H](CC1)O[C@@H]1n1c(NC=NC2=O)c2nc1

$$$$

Actelion Java MolfileCreator 2.0

  0  0  0  0  0  0              0 V3000
M  V30 BEGIN CTAB
M  V30 COUNTS 40 44 0 0 0
M  V30 BEGIN ATOM
M  V30 1 F 8.1448 3.2024 0.0 0
M  V30 2 C 9.0108 2.7024 0.0 0
M  V30 3 C 9.0108 1.7024 0.0 0
M  V30 4 C 9.8769 3.2024 0.0 0
M  V30 5 N 9.8769 1.2024 0.0 0
M  V30 6 N 8.1448 1.2024 0.0 0
M  V30 7 C 10.7429 2.7024 0.0 0
M  V30 8 C 10.7429 1.7024 0.0 0
M  V30 9 C 8.0403 0.2079 0.0 0
M  V30 10 C 7.2313 1.6091 0.0 0
M  V30 11 C 11.6089 3.2024 0.0 0
M  V30 12 N 11.6089 1.2024 0.0 0
M  V30 13 C 7.0621 0.0 0.0 0 CFG=1
M  V30 14 C 6.5621 0.866 0.0 0 CFG=2
M  V30 15 O 11.6089 4.2024 0.0 0
M  V30 16 C 12.4749 2.7024 0.0 0
M  V30 17 C 11.6089 0.2024 0.0 0
M  V30 18 C 12.4749 1.7024 0.0 0
M  V30 19 C 6.0621 0.0 0.0 0 CFG=2
M  V30 20 C 13.341 3.2024 0.0 0
M  V30 21 C 10.7429 -0.2975 0.0 0
M  V30 22 C 12.4749 -0.2975 0.0 0
M  V30 23 N 5.1961 -0.5 0.0 0
M  V30 24 O 14.207 2.7024 0.0 0
M  V30 25 O 13.341 4.2024 0.0 0 CHG=-1
M  V30 26 F 9.8769 0.2024 0.0 0
M  V30 27 C 10.7429 -1.2975 0.0 0
M  V30 28 C 12.4749 -1.2975 0.0 0
M  V30 29 C 4.3301 0.0 0.0 0
M  V30 30 C 11.6089 -1.7975 0.0 0
M  V30 31 O 4.3301 1.0 0.0 0
M  V30 32 C 3.4641 -0.5 0.0 0 CFG=1
M  V30 33 F 11.6089 -2.7975 0.0 0
M  V30 34 N 2.598 0.0 0.0 0
M  V30 35 C 3.4641 -1.5 0.0 0
M  V30 36 C 1.732 -0.5 0.0 0
M  V30 37 O 1.732 -1.5 0.0 0
M  V30 38 C 0.866 0.0 0.0 0 CFG=1
M  V30 39 N 0.866 1.0 0.0 0
M  V30 40 C 0.0 -0.5 0.0 0
M  V30 END ATOM
M  V30 BEGIN BOND
M  V30 1 1 1 2
M  V30 2 2 2 3
M  V30 3 1 2 4
M  V30 4 1 3 5
M  V30 5 1 3 6
M  V30 6 2 4 7
M  V30 7 2 5 8
M  V30 8 1 6 9
M  V30 9 1 6 10
M  V30 10 1 7 11
M  V30 11 1 8 12
M  V30 12 1 13 9 CFG=3
M  V30 13 1 14 10 CFG=3
M  V30 14 2 11 15
M  V30 15 1 11 16
M  V30 16 1 12 17
M  V30 17 1 12 18
M  V30 18 1 19 13
M  V30 19 1 16 20
M  V30 20 2 17 21
M  V30 21 1 17 22
M  V30 22 1 19 23 CFG=1
M  V30 23 2 20 24
M  V30 24 1 20 25
M  V30 25 1 21 26
M  V30 26 1 21 27
M  V30 27 2 22 28
M  V30 28 1 23 29
M  V30 29 2 27 30
M  V30 30 2 29 31
M  V30 31 1 32 29
M  V30 32 1 30 33
M  V30 33 1 32 34 CFG=3
M  V30 34 1 32 35
M  V30 35 1 34 36
M  V30 36 2 36 37
M  V30 37 1 38 36
M  V30 38 1 38 39 CFG=3
M  V30 39 1 38 40
M  V30 40 1 7 8
M  V30 41 1 13 14
M  V30 42 1 14 19
M  V30 43 2 16 18
M  V30 44 1 28 30
M  V30 END BOND
M  V30 BEGIN COLLECTION
M  V30 MDLV30/STEABS ATOMS=(3 13 14 19)
M  V30 MDLV30/STERAC1 ATOMS=(2 32 38)
M  V30 END COLLECTION
M  V30 END CTAB
M  END
>  <Molecule Name>


>  <status>
DISCONTINUED

>  <cas>
146961-76-4

>  <name>
ALATROFLOXACIN

>  <ID>
689

>  <Smiles>
C[C@@H](C(N[C@@H](C)C(N[C@@H]1[C@@H](C2)[C@H]1CN2c(nc(c(C(C(C([O-])=O)=C1)=O)c2)N1c(ccc(F)c1)c1F)c2F)=O)=O)N

$$$$

Actelion Java MolfileCreator 2.0

  0  0  0  0  0  0              0 V3000
M  V30 BEGIN CTAB
M  V30 COUNTS 22 23 0 0 0
M  V30 BEGIN ATOM
M  V30 1 F 2.3971 1.5 0.0 0
M  V30 2 C 3.8971 1.5 0.0 0
M  V30 3 F 3.8971 3.0 0.0 0
M  V30 4 F 5.3971 1.5 0.0 0
M  V30 5 C 3.8971 0.0 0.0 0
M  V30 6 C 2.598 -0.75 0.0 0
M  V30 7 C 5.1961 -0.75 0.0 0
M  V30 8 N 1.299 0.0 0.0 0 CHG=1
M  V30 9 C 2.598 -2.25 0.0 0
M  V30 10 C 5.1961 -2.25 0.0 0
M  V30 11 O 1.299 1.5 0.0 0
M  V30 12 O 0.0 -0.75 0.0 0 CHG=-1
M  V30 13 C 3.8971 -3.0 0.0 0
M  V30 14 N 6.4952 -3.0 0.0 0
M  V30 15 C 6.6519 -4.4917 0.0 0
M  V30 16 C 7.8655 -2.3898 0.0 0
M  V30 17 O 5.5372 -5.4954 0.0 0
M  V30 18 N 8.1192 -4.8036 0.0 0
M  V30 19 O 8.1773 -0.9226 0.0 0
M  V30 20 C 8.8692 -3.5046 0.0 0
M  V30 21 C 10.2395 -4.1147 0.0 0
M  V30 22 C 10.0827 -2.6229 0.0 0
M  V30 END ATOM
M  V30 BEGIN BOND
M  V30 1 1 1 2
M  V30 2 1 2 3
M  V30 3 1 2 4
M  V30 4 1 2 5
M  V30 5 2 5 6
M  V30 6 1 5 7
M  V30 7 1 6 8
M  V30 8 1 6 9
M  V30 9 2 7 10
M  V30 10 2 8 11
M  V30 11 1 8 12
M  V30 12 2 9 13
M  V30 13 1 10 14
M  V30 14 1 14 15
M  V30 15 1 14 16
M  V30 16 2 15 17
M  V30 17 1 15 18
M  V30 18 2 16 19
M  V30 19 1 16 20
M  V30 20 1 20 21
M  V30 21 1 20 22
M  V30 22 1 10 13
M  V30 23 1 18 20
M  V30 END BOND
M  V30 END CTAB
M  END
>  <Molecule Name>


>  <status>
-

>  <cas>
63612-50-0

>  <name>
NILUTAMIDE

>  <ID>
690

>  <Smiles>
CC(C)(C(N1c(cc2)cc(C(F)(F)F)c2[N+]([O-])=O)=O)NC1=O

$$$$

Actelion Java MolfileCreator 2.0

  0  0  0  0  0  0              0 V3000
M  V30 BEGIN CTAB
M  V30 COUNTS 27 30 0 0 0
M  V30 BEGIN ATOM
M  V30 1 O 4.5567 6.7008 0.0 0
M  V30 2 C 4.2476 5.7498 0.0 0
M  V30 3 N 4.9168 5.0066 0.0 0
M  V30 4 C 3.2695 5.5418 0.0 0
M  V30 5 C 4.6078 4.0556 0.0 0 CFG=2
M  V30 6 C 2.9605 4.5908 0.0 0
M  V30 7 C 3.6296 3.8476 0.0 0 CFG=1
M  V30 8 C 5.2769 3.3124 0.0 0
M  V30 9 C 3.3206 2.8966 0.0 0 CFG=1
M  V30 10 C 2.6515 3.6397 0.0 0
M  V30 11 C 4.9679 2.3614 0.0 0
M  V30 12 C 3.9897 2.1534 0.0 0 CFG=2
M  V30 13 C 2.3424 2.6887 0.0 0
M  V30 14 C 3.6807 1.2024 0.0 0 CFG=2
M  V30 15 C 2.0334 1.7376 0.0 0
M  V30 16 C 2.7026 0.9945 0.0 0 CFG=1
M  V30 17 C 4.1807 0.3364 0.0 0
M  V30 18 C 2.598 0.0 0.0 0 CFG=1
M  V30 19 C 1.7515 0.6855 0.0 0
M  V30 20 C 3.5116 -0.4067 0.0 0
M  V30 21 C 1.732 -0.5 0.0 0
M  V30 22 O 1.732 -1.5 0.0 0
M  V30 23 N 0.866 0.0 0.0 0
M  V30 24 C 0.0 -0.5 0.0 0
M  V30 25 C 0.4999 -1.366 0.0 0
M  V30 26 C -0.866 -0.9999 0.0 0
M  V30 27 C -0.4999 0.366 0.0 0
M  V30 END ATOM
M  V30 BEGIN BOND
M  V30 1 2 1 2
M  V30 2 1 2 3
M  V30 3 1 2 4
M  V30 4 1 5 3 CFG=1
M  V30 5 2 4 6
M  V30 6 1 7 5
M  V30 7 1 5 8
M  V30 8 1 9 7
M  V30 9 1 7 10 CFG=1
M  V30 10 1 8 11
M  V30 11 1 12 9
M  V30 12 1 9 13 CFG=1
M  V30 13 1 14 12
M  V30 14 1 13 15
M  V30 15 1 16 14
M  V30 16 1 14 17 CFG=1
M  V30 17 1 18 16
M  V30 18 1 16 19 CFG=1
M  V30 19 1 17 20
M  V30 20 1 18 21 CFG=1
M  V30 21 2 21 22
M  V30 22 1 21 23
M  V30 23 1 23 24
M  V30 24 1 24 25
M  V30 25 1 24 26
M  V30 26 1 24 27
M  V30 27 1 6 7
M  V30 28 1 12 11 CFG=3
M  V30 29 1 15 16
M  V30 30 1 18 20
M  V30 END BOND
M  V30 BEGIN COLLECTION
M  V30 MDLV30/STERAC1 ATOMS=(7 5 7 9 12 14 16 18)
M  V30 END COLLECTION
M  V30 END CTAB
M  END
>  <Molecule Name>


>  <status>
-

>  <cas>
98319-26-7

>  <name>
FINASTERIDE

>  <ID>
691

>  <Smiles>
CC(C)(C)NC([C@H](CC1)[C@](C)(CC2)[C@H]1[C@@H](CC[C@@H]1N3)[C@@H]2[C@]1(C)C=CC3=O)=O

$$$$
_c001
Actelion Java MolfileCreator 2.0

  0  0  0  0  0  0              0 V3000
M  V30 BEGIN CTAB
M  V30 COUNTS 26 27 0 0 0
M  V30 BEGIN ATOM
M  V30 1 O 13.501 1.7908 0.0 0
M  V30 2 C 12.0744 1.3273 0.0 0
M  V30 3 O 10.9597 2.331 0.0 0 CHG=-1
M  V30 4 C 11.7626 -0.1398 0.0 0 CFG=1
M  V30 5 N 10.3923 -0.75 0.0 0
M  V30 6 C 12.7663 -1.2546 0.0 0
M  V30 7 C 9.0932 0.0 0.0 0
M  V30 8 C 10.549 -2.2417 0.0 0 CFG=2
M  V30 9 C 12.0163 -2.5536 0.0 0 CFG=1
M  V30 10 O 9.0932 1.4999 0.0 0
M  V30 11 C 7.7942 -0.75 0.0 0 CFG=1
M  V30 12 C 9.5454 -3.3565 0.0 0
M  V30 13 C 12.4798 -3.9802 0.0 0
M  V30 14 N 6.4951 0.0 0.0 0
M  V30 15 C 7.7942 -2.25 0.0 0
M  V30 16 C 10.0089 -4.783 0.0 0
M  V30 17 C 11.4761 -5.0949 0.0 0
M  V30 18 C 5.1961 -0.75 0.0 0 CFG=2
M  V30 19 C 3.8971 0.0 0.0 0
M  V30 20 C 5.1961 -2.25 0.0 0
M  V30 21 O 3.8971 1.5 0.0 0
M  V30 22 O 2.598 -0.75 0.0 0
M  V30 23 C 3.8971 -3.0 0.0 0
M  V30 24 C 1.299 0.0 0.0 0
M  V30 25 C 3.8971 -4.5 0.0 0
M  V30 26 C 0.0 -0.75 0.0 0
M  V30 END ATOM
M  V30 BEGIN BOND
M  V30 1 2 1 2
M  V30 2 1 2 3
M  V30 3 1 4 2 CFG=3
M  V30 4 1 4 5
M  V30 5 1 4 6
M  V30 6 1 5 7
M  V30 7 1 8 5 CFG=3
M  V30 8 1 9 6 CFG=3
M  V30 9 2 7 10
M  V30 10 1 11 7
M  V30 11 1 8 12
M  V30 12 1 9 13
M  V30 13 1 11 14 CFG=3
M  V30 14 1 11 15
M  V30 15 1 12 16
M  V30 16 1 13 17
M  V30 17 1 18 14 CFG=1
M  V30 18 1 18 19
M  V30 19 1 18 20
M  V30 20 2 19 21
M  V30 21 1 19 22
M  V30 22 1 20 23
M  V30 23 1 22 24
M  V30 24 1 23 25
M  V30 25 1 24 26
M  V30 26 1 8 9
M  V30 27 1 16 17
M  V30 END BOND
M  V30 BEGIN COLLECTION
M  V30 MDLV30/STERAC1 ATOMS=(5 4 8 9 11 18)
M  V30 END COLLECTION
M  V30 END CTAB
M  END
>  <Molecule Name>
_c001

>  <status>
-

>  <cas>
82834-16-0

>  <name>
PERINDOPRIL

>  <ID>
692

>  <Smiles>
CCC[C@@H](C(OCC)=O)N[C@@H](C)C(N([C@@H](C1)C([O-])=O)[C@@H]2[C@H]1CCCC2)=O

$$$$

Actelion Java MolfileCreator 2.0

  0  0  0  0  0  0              0 V3000
M  V30 BEGIN CTAB
M  V30 COUNTS 17 17 0 0 0
M  V30 BEGIN ATOM
M  V30 1 O 6.9282 -0.5 0.0 0
M  V30 2 C 6.0621 0.0 0.0 0
M  V30 3 O 5.1961 -0.5 0.0 0
M  V30 4 N 6.0621 0.9999 0.0 0
M  V30 5 C 4.3301 0.0 0.0 0
M  V30 6 C 3.4641 -0.5 0.0 0
M  V30 7 C 3.4641 -1.5 0.0 0
M  V30 8 C 2.598 0.0 0.0 0
M  V30 9 C 2.598 -1.9999 0.0 0
M  V30 10 C 4.3301 -2.0 0.0 0
M  V30 11 O 1.732 -0.5 0.0 0
M  V30 12 C 2.598 -2.9999 0.0 0
M  V30 13 C 4.3301 -3.0 0.0 0
M  V30 14 C 0.866 0.0 0.0 0
M  V30 15 C 3.4641 -3.5 0.0 0
M  V30 16 O 0.866 1.0 0.0 0
M  V30 17 N 0.0 -0.5 0.0 0
M  V30 END ATOM
M  V30 BEGIN BOND
M  V30 1 2 1 2
M  V30 2 1 2 3
M  V30 3 1 2 4
M  V30 4 1 3 5
M  V30 5 1 5 6
M  V30 6 1 6 7
M  V30 7 1 6 8
M  V30 8 2 7 9
M  V30 9 1 7 10
M  V30 10 1 8 11
M  V30 11 1 9 12
M  V30 12 2 10 13
M  V30 13 1 11 14
M  V30 14 2 12 15
M  V30 15 2 14 16
M  V30 16 1 14 17
M  V30 17 1 13 15
M  V30 END BOND
M  V30 END CTAB
M  END
>  <Molecule Name>


>  <status>
-

>  <cas>
25451-15-4

>  <name>
FELBAMATE

>  <ID>
693

>  <Smiles>
NC(OCC(COC(N)=O)c1ccccc1)=O

$$$$

Actelion Java MolfileCreator 2.0

  0  0  0  0  0  0              0 V3000
M  V30 BEGIN CTAB
M  V30 COUNTS 22 23 0 0 0
M  V30 BEGIN ATOM
M  V30 1 N 2.598 0.0 0.0 0
M  V30 2 C 3.4641 -0.5 0.0 0
M  V30 3 C 1.732 -0.5 0.0 0
M  V30 4 C 2.598 1.0 0.0 0
M  V30 5 C 4.3301 0.0 0.0 0
M  V30 6 C 0.866 0.0 0.0 0
M  V30 7 C 5.1961 -0.4999 0.0 0
M  V30 8 C 4.3301 0.9999 0.0 0
M  V30 9 C 0.0 -0.5 0.0 0
M  V30 10 C 6.0621 0.0 0.0 0
M  V30 11 C 5.1961 -1.4999 0.0 0
M  V30 12 C 5.1961 1.4999 0.0 0
M  V30 13 C -0.866 0.0 0.0 0
M  V30 14 C 6.0621 1.0 0.0 0
M  V30 15 C 6.9282 -0.4999 0.0 0
M  V30 16 C 6.0621 -1.9999 0.0 0
M  V30 17 C -1.732 0.4999 0.0 0
M  V30 18 C 6.9282 -1.4999 0.0 0
M  V30 19 C -2.598 0.9999 0.0 0
M  V30 20 C -2.098 1.866 0.0 0
M  V30 21 C -3.4641 1.4999 0.0 0
M  V30 22 C -3.098 0.1339 0.0 0
M  V30 END ATOM
M  V30 BEGIN BOND
M  V30 1 1 1 2
M  V30 2 1 1 3
M  V30 3 1 1 4
M  V30 4 1 2 5
M  V30 5 1 3 6
M  V30 6 1 5 7
M  V30 7 2 5 8
M  V30 8 2 6 9
M  V30 9 1 7 10
M  V30 10 2 7 11
M  V30 11 1 8 12
M  V30 12 1 9 13
M  V30 13 1 10 14
M  V30 14 2 10 15
M  V30 15 1 11 16
M  V30 16 3 13 17
M  V30 17 1 15 18
M  V30 18 1 17 19
M  V30 19 1 19 20
M  V30 20 1 19 21
M  V30 21 1 19 22
M  V30 22 2 12 14
M  V30 23 2 16 18
M  V30 END BOND
M  V30 END CTAB
M  END
>  <Molecule Name>


>  <status>
-

>  <cas>
91161-71-6

>  <name>
TERBINAFINE

>  <ID>
694

>  <Smiles>
CC(C)(C)C#C/C=C/CN(C)Cc1cccc2ccccc12

$$$$

Actelion Java MolfileCreator 2.0

  0  0  0  0  0  0              0 V3000
M  V30 BEGIN CTAB
M  V30 COUNTS 15 16 0 0 0
M  V30 BEGIN ATOM
M  V30 1 O 4.4902 -2.4544 0.0 0
M  V30 2 C 4.897 -1.5408 0.0 0
M  V30 3 N 5.8915 -1.4363 0.0 0
M  V30 4 N 4.3092 -0.7318 0.0 0
M  V30 5 C 6.2982 -0.5228 0.0 0
M  V30 6 C 4.7159 0.1816 0.0 0
M  V30 7 C 3.3147 -0.8364 0.0 0 CFG=1
M  V30 8 N 7.2928 -0.4182 0.0 0
M  V30 9 C 5.7105 0.2861 0.0 0
M  V30 10 O 2.6455 -0.0932 0.0 0
M  V30 11 C 2.8147 -1.7024 0.0 0
M  V30 12 C 1.732 -0.5 0.0 0 CFG=2
M  V30 13 C 1.8365 -1.4945 0.0 0
M  V30 14 C 0.866 0.0 0.0 0
M  V30 15 O 0.0 -0.5 0.0 0
M  V30 END ATOM
M  V30 BEGIN BOND
M  V30 1 2 1 2
M  V30 2 1 2 3
M  V30 3 1 2 4
M  V30 4 2 3 5
M  V30 5 1 4 6
M  V30 6 1 7 4 CFG=3
M  V30 7 1 5 8
M  V30 8 1 5 9
M  V30 9 1 7 10
M  V30 10 1 7 11
M  V30 11 1 12 10
M  V30 12 1 11 13
M  V30 13 1 12 14 CFG=3
M  V30 14 1 14 15
M  V30 15 2 6 9
M  V30 16 1 12 13
M  V30 END BOND
M  V30 BEGIN COLLECTION
M  V30 MDLV30/STERAC1 ATOMS=(2 7 12)
M  V30 END COLLECTION
M  V30 END CTAB
M  END
>  <Molecule Name>


>  <status>
DISCONTINUED

>  <cas>
7481-89-2

>  <name>
ZALCITABINE

>  <ID>
695

>  <Smiles>
NC(C=CN1[C@H]2O[C@@H](CO)CC2)=NC1=O

$$$$

Actelion Java MolfileCreator 2.0

  0  0  0  0  0  0              0 V3000
M  V30 BEGIN CTAB
M  V30 COUNTS 32 34 0 0 0
M  V30 BEGIN ATOM
M  V30 1 Cl 11.2583 0.9999 0.0 0
M  V30 2 C 10.3923 1.4999 0.0 0
M  V30 3 C 10.3923 2.4999 0.0 0
M  V30 4 C 9.5262 0.9999 0.0 0
M  V30 5 N 11.2583 2.9999 0.0 0
M  V30 6 C 9.5262 2.9999 0.0 0
M  V30 7 C 8.6602 1.4999 0.0 0
M  V30 8 C 8.6602 2.4999 0.0 0
M  V30 9 C 7.7942 0.9999 0.0 0
M  V30 10 O 7.7942 2.9999 0.0 0
M  V30 11 O 7.7942 0.0 0.0 0
M  V30 12 N 6.9282 1.4999 0.0 0
M  V30 13 C 6.9282 2.4999 0.0 0
M  V30 14 C 6.0621 0.9999 0.0 0 CFG=2
M  V30 15 C 5.1961 1.4999 0.0 0 CFG=1
M  V30 16 C 6.0621 0.0 0.0 0
M  V30 17 O 5.1961 2.5 0.0 0
M  V30 18 C 4.3301 0.9999 0.0 0
M  V30 19 C 5.1961 -0.5 0.0 0
M  V30 20 C 4.3301 3.0 0.0 0
M  V30 21 N 4.3301 0.0 0.0 0
M  V30 22 C 3.4641 -0.5 0.0 0
M  V30 23 C 2.598 0.0 0.0 0
M  V30 24 C 1.732 -0.5 0.0 0
M  V30 25 O 0.866 0.0 0.0 0
M  V30 26 C 0.0 -0.5 0.0 0
M  V30 27 C -0.866 0.0 0.0 0
M  V30 28 C 0.0 -1.4999 0.0 0
M  V30 29 C -1.732 -0.4999 0.0 0
M  V30 30 C -0.866 -1.9999 0.0 0
M  V30 31 C -1.732 -1.4999 0.0 0
M  V30 32 F -2.598 -1.9999 0.0 0
M  V30 END ATOM
M  V30 BEGIN BOND
M  V30 1 1 1 2
M  V30 2 2 2 3
M  V30 3 1 2 4
M  V30 4 1 3 5
M  V30 5 1 3 6
M  V30 6 2 4 7
M  V30 7 2 6 8
M  V30 8 1 7 9
M  V30 9 1 8 10
M  V30 10 2 9 11
M  V30 11 1 9 12
M  V30 12 1 10 13
M  V30 13 1 14 12 CFG=1
M  V30 14 1 15 14
M  V30 15 1 14 16
M  V30 16 1 15 17 CFG=3
M  V30 17 1 15 18
M  V30 18 1 16 19
M  V30 19 1 17 20
M  V30 20 1 18 21
M  V30 21 1 21 22
M  V30 22 1 22 23
M  V30 23 1 23 24
M  V30 24 1 24 25
M  V30 25 1 25 26
M  V30 26 2 26 27
M  V30 27 1 26 28
M  V30 28 1 27 29
M  V30 29 2 28 30
M  V30 30 2 29 31
M  V30 31 1 31 32
M  V30 32 1 7 8
M  V30 33 1 19 21
M  V30 34 1 30 31
M  V30 END BOND
M  V30 BEGIN COLLECTION
M  V30 MDLV30/STERAC1 ATOMS=(2 14 15)
M  V30 END COLLECTION
M  V30 END CTAB
M  END
>  <Molecule Name>


>  <status>
DISCONTINUED

>  <cas>
81098-60-4

>  <name>
CISAPRIDE

>  <ID>
696

>  <Smiles>
CO[C@@H](CN(CCCOc(cc1)ccc1F)CC1)[C@H]1NC(c(c(OC)c1)cc(Cl)c1N)=O

$$$$

Actelion Java MolfileCreator 2.0

  0  0  0  0  0  0              0 V3000
M  V30 BEGIN CTAB
M  V30 COUNTS 19 20 0 0 0
M  V30 BEGIN ATOM
M  V30 1 O 5.1961 -0.5 0.0 0
M  V30 2 C 4.3301 0.0 0.0 0
M  V30 3 N 4.3301 1.0 0.0 0
M  V30 4 C 3.4641 -0.4999 0.0 0
M  V30 5 C 3.4641 1.5 0.0 0
M  V30 6 N 2.598 0.0 0.0 0
M  V30 7 O 3.4641 2.5 0.0 0
M  V30 8 C 2.598 1.0 0.0 0
M  V30 9 C 1.732 -0.5 0.0 0 CFG=2
M  V30 10 C 0.866 0.0 0.0 0
M  V30 11 C 1.732 -1.5 0.0 0
M  V30 12 N 0.0 -0.5 0.0 0
M  V30 13 C -0.866 0.0 0.0 0
M  V30 14 C 0.0 -1.4999 0.0 0
M  V30 15 C -1.732 -0.4999 0.0 0
M  V30 16 C -0.866 -1.9999 0.0 0
M  V30 17 O -2.598 0.0 0.0 0
M  V30 18 N -1.732 -1.4999 0.0 0
M  V30 19 O -0.866 -2.9999 0.0 0
M  V30 END ATOM
M  V30 BEGIN BOND
M  V30 1 2 1 2
M  V30 2 1 2 3
M  V30 3 1 2 4
M  V30 4 1 3 5
M  V30 5 1 4 6
M  V30 6 2 5 7
M  V30 7 1 5 8
M  V30 8 1 9 6 CFG=1
M  V30 9 1 9 10
M  V30 10 1 9 11
M  V30 11 1 10 12
M  V30 12 1 12 13
M  V30 13 1 12 14
M  V30 14 1 13 15
M  V30 15 1 14 16
M  V30 16 2 15 17
M  V30 17 1 15 18
M  V30 18 2 16 19
M  V30 19 1 6 8
M  V30 20 1 16 18
M  V30 END BOND
M  V30 BEGIN COLLECTION
M  V30 MDLV30/STERAC1 ATOMS=(1 9)
M  V30 END COLLECTION
M  V30 END CTAB
M  END
>  <Molecule Name>


>  <status>
-

>  <cas>
24584-09-6

>  <name>
DEXRAZOXANE

>  <ID>
697

>  <Smiles>
CC(CN(CC(N1)=O)CC1=O)N(CC(N1)=O)CC1=O

$$$$

Actelion Java MolfileCreator 2.0

  0  0  0  0  0  0              0 V3000
M  V30 BEGIN CTAB
M  V30 COUNTS 31 34 0 0 0
M  V30 BEGIN ATOM
M  V30 1 F 6.4957 12.001 0.0 0
M  V30 2 C 5.1966 11.251 0.0 0
M  V30 3 C 3.8974 12.001 0.0 0
M  V30 4 C 5.1966 9.7508 0.0 0
M  V30 5 C 2.5983 11.251 0.0 0
M  V30 6 C 3.8974 9.0008 0.0 0
M  V30 7 C 2.5983 9.7508 0.0 0
M  V30 8 C 1.2991 9.0008 0.0 0 CFG=2
M  V30 9 C 1.2991 10.5009 0.0 0
M  V30 10 C 0.0 8.2507 0.0 0
M  V30 11 C 2.5983 8.2507 0.0 0
M  V30 12 N 1.2991 12.001 0.0 0
M  V30 13 C 0.0 6.7506 0.0 0
M  V30 14 C 2.5983 6.7506 0.0 0
M  V30 15 C 1.2991 6.0005 0.0 0 CFG=2
M  V30 16 N 1.2991 4.5004 0.0 0
M  V30 17 C 0.0 3.7503 0.0 0
M  V30 18 C 2.5983 3.7503 0.0 0
M  V30 19 C 0.0 2.2502 0.0 0 CFG=2
M  V30 20 C 2.5983 2.2502 0.0 0
M  V30 21 C 1.2991 1.5001 0.0 0 CFG=2
M  V30 22 C -1.1805 1.8559 0.0 0
M  V30 23 C 0.0 0.75 0.0 0
M  V30 24 C 1.2991 0.0 0.0 0
M  V30 25 C -1.3584 1.3222 0.0 0
M  V30 26 C 0.0923 -0.9906 0.0 0
M  V30 27 O 2.5983 -0.75 0.0 0
M  V30 28 O -0.2757 -0.6046 0.0 0 CHG=-1
M  V30 29 C -2.5983 0.75 0.0 0
M  V30 30 C -1.2991 -1.5001 0.0 0
M  V30 31 C -2.5983 -0.75 0.0 0
M  V30 END ATOM
M  V30 BEGIN BOND
M  V30 1 1 1 2
M  V30 2 2 2 3
M  V30 3 1 2 4
M  V30 4 1 3 5
M  V30 5 2 4 6
M  V30 6 2 5 7
M  V30 7 1 8 7 CFG=1
M  V30 8 1 8 9
M  V30 9 1 8 10
M  V30 10 1 8 11
M  V30 11 3 9 12
M  V30 12 1 10 13
M  V30 13 1 11 14
M  V30 14 1 15 13
M  V30 15 1 15 16 CFG=3
M  V30 16 1 16 17
M  V30 17 1 16 18
M  V30 18 1 19 17
M  V30 19 1 18 20
M  V30 20 1 21 19
M  V30 21 1 19 22 CFG=3
M  V30 22 1 21 23 CFG=3
M  V30 23 1 21 24
M  V30 24 2 23 25
M  V30 25 1 23 26
M  V30 26 2 24 27
M  V30 27 1 24 28
M  V30 28 1 25 29
M  V30 29 2 26 30
M  V30 30 2 29 31
M  V30 31 1 6 7
M  V30 32 1 14 15
M  V30 33 1 20 21
M  V30 34 1 30 31
M  V30 END BOND
M  V30 BEGIN COLLECTION
M  V30 MDLV30/STEABS ATOMS=(2 8 15)
M  V30 MDLV30/STERAC1 ATOMS=(2 19 21)
M  V30 END COLLECTION
M  V30 END CTAB
M  END
>  <Molecule Name>


>  <status>
DISCONTINUED

>  <cas>
79516-68-0

>  <name>
LEVOCABASTINE

>  <ID>
698

>  <Smiles>
C[C@H](CN(CC1)[C@H](CC2)CC[C@@]2(c(cc2)ccc2F)C#N)[C@@]1(C([O-])=O)c1ccccc1

$$$$

Actelion Java MolfileCreator 2.0

  0  0  0  0  0  0              0 V3000
M  V30 BEGIN CTAB
M  V30 COUNTS 12 11 0 0 0
M  V30 BEGIN ATOM
M  V30 1 S 6.0621 0.0 0.0 0
M  V30 2 P 6.9282 -0.5 0.0 0
M  V30 3 C 5.1961 -0.5 0.0 0
M  V30 4 O 6.4282 -1.366 0.0 0
M  V30 5 O 7.7942 -1.0 0.0 0 CHG=-1
M  V30 6 O 7.4282 0.366 0.0 0 CHG=-1
M  V30 7 C 4.3301 0.0 0.0 0
M  V30 8 N 3.4641 -0.5 0.0 0
M  V30 9 C 2.598 0.0 0.0 0
M  V30 10 C 1.732 -0.5 0.0 0
M  V30 11 C 0.866 0.0 0.0 0
M  V30 12 N 0.0 -0.5 0.0 0
M  V30 END ATOM
M  V30 BEGIN BOND
M  V30 1 1 1 2
M  V30 2 1 1 3
M  V30 3 2 2 4
M  V30 4 1 2 5
M  V30 5 1 2 6
M  V30 6 1 3 7
M  V30 7 1 7 8
M  V30 8 1 8 9
M  V30 9 1 9 10
M  V30 10 1 10 11
M  V30 11 1 11 12
M  V30 END BOND
M  V30 END CTAB
M  END
>  <Molecule Name>


>  <status>
-

>  <cas>
20537-88-6

>  <name>
AMIFOSTINE

>  <ID>
699

>  <Smiles>
NCCCNCCSP([O-])([O-])=O

$$$$

Actelion Java MolfileCreator 2.0

  0  0  0  0  0  0              0 V3000
M  V30 BEGIN CTAB
M  V30 COUNTS 45 50 0 0 0
M  V30 BEGIN ATOM
M  V30 1 O 4.3301 0.9999 0.0 0
M  V30 2 C 4.3301 0.0 0.0 0
M  V30 3 O 5.1961 -0.5 0.0 0
M  V30 4 O 3.4641 -0.5 0.0 0
M  V30 5 C 6.0621 0.0 0.0 0
M  V30 6 C 2.598 0.0 0.0 0 CFG=2
M  V30 7 C 6.9282 -0.5 0.0 0
M  V30 8 C 6.0621 0.9999 0.0 0
M  V30 9 O 1.732 -0.5 0.0 0
M  V30 10 C 2.598 1.0 0.0 0
M  V30 11 C 7.7942 0.0 0.0 0
M  V30 12 C 6.9282 1.4999 0.0 0
M  V30 13 C 0.866 0.0 0.0 0
M  V30 14 C 7.7942 0.9999 0.0 0
M  V30 15 O 0.866 1.0 0.0 0
M  V30 16 C 0.0 -0.5 0.0 0
M  V30 17 C -0.866 0.0 0.0 0
M  V30 18 C 0.0 -1.4999 0.0 0
M  V30 19 N -1.0739 0.9781 0.0 0
M  V30 20 C -1.732 -0.4999 0.0 0
M  V30 21 C -0.866 -1.9999 0.0 0
M  V30 22 C -2.0684 1.0826 0.0 0
M  V30 23 C -0.4048 1.7212 0.0 0
M  V30 24 N -2.4751 0.1691 0.0 0
M  V30 25 C -1.732 -1.4999 0.0 0
M  V30 26 O -2.5684 1.9487 0.0 0
M  V30 27 C -0.7138 2.6723 0.0 0
M  V30 28 C -3.5684 1.9487 0.0 0
M  V30 29 C -0.0446 3.4154 0.0 0
M  V30 30 C -1.6919 2.8802 0.0 0
M  V30 31 C -4.0684 2.8147 0.0 0
M  V30 32 C -0.3537 4.3665 0.0 0
M  V30 33 C -2.0009 3.8313 0.0 0
M  V30 34 C -1.3318 4.5744 0.0 0
M  V30 35 C -1.6408 5.5255 0.0 0
M  V30 36 C -0.9717 6.2686 0.0 0
M  V30 37 C -2.619 5.7334 0.0 0
M  V30 38 C 0.0064 6.0607 0.0 0
M  V30 39 C -1.2807 7.2197 0.0 0
M  V30 40 C -2.928 6.6844 0.0 0
M  V30 41 N 0.4131 5.1472 0.0 0
M  V30 42 N 0.7495 6.7298 0.0 0
M  V30 43 C -2.2589 7.4276 0.0 0
M  V30 44 N 1.4076 5.2517 0.0 0
M  V30 45 N 1.6155 6.2298 0.0 0
M  V30 END ATOM
M  V30 BEGIN BOND
M  V30 1 2 1 2
M  V30 2 1 2 3
M  V30 3 1 2 4
M  V30 4 1 3 5
M  V30 5 1 6 4 CFG=3
M  V30 6 1 5 7
M  V30 7 1 5 8
M  V30 8 1 6 9
M  V30 9 1 6 10
M  V30 10 1 7 11
M  V30 11 1 8 12
M  V30 12 1 9 13
M  V30 13 1 11 14
M  V30 14 2 13 15
M  V30 15 1 13 16
M  V30 16 2 16 17
M  V30 17 1 16 18
M  V30 18 1 17 19
M  V30 19 1 17 20
M  V30 20 2 18 21
M  V30 21 1 19 22
M  V30 22 1 19 23
M  V30 23 1 20 24
M  V30 24 2 20 25
M  V30 25 1 22 26
M  V30 26 1 23 27
M  V30 27 1 26 28
M  V30 28 2 27 29
M  V30 29 1 27 30
M  V30 30 1 28 31
M  V30 31 1 29 32
M  V30 32 2 30 33
M  V30 33 2 32 34
M  V30 34 1 34 35
M  V30 35 2 35 36
M  V30 36 1 35 37
M  V30 37 1 36 38
M  V30 38 1 36 39
M  V30 39 2 37 40
M  V30 40 2 38 41
M  V30 41 1 38 42
M  V30 42 2 39 43
M  V30 43 1 41 44
M  V30 44 1 42 45
M  V30 45 1 12 14
M  V30 46 1 21 25
M  V30 47 2 22 24
M  V30 48 1 33 34
M  V30 49 1 40 43
M  V30 50 2 44 45
M  V30 END BOND
M  V30 BEGIN COLLECTION
M  V30 MDLV30/STERAC1 ATOMS=(1 6)
M  V30 END COLLECTION
M  V30 END CTAB
M  END
>  <Molecule Name>


>  <status>
-

>  <cas>
145040-37-5

>  <name>
CANDESARTAN CILEXETIL

>  <ID>
700

>  <Smiles>
CCOc1nc2cccc(C(OC(C)OC(OC3CCCCC3)=O)=O)c2n1Cc(cc1)ccc1-c(cccc1)c1-c1nnn[nH]1

$$$$

Actelion Java MolfileCreator 2.0

  0  0  0  0  0  0              0 V3000
M  V30 BEGIN CTAB
M  V30 COUNTS 19 21 0 0 0
M  V30 BEGIN ATOM
M  V30 1 Cl 8.3675 -6.0777 0.0 0
M  V30 2 C 8.5243 -4.5859 0.0 0
M  V30 3 N 9.8946 -3.9758 0.0 0
M  V30 4 N 7.3107 -3.7043 0.0 0
M  V30 5 C 10.0514 -2.4841 0.0 0
M  V30 6 C 7.4675 -2.2125 0.0 0
M  V30 7 N 11.4217 -1.874 0.0 0
M  V30 8 C 8.8378 -1.6024 0.0 0
M  V30 9 N 6.4638 -1.0978 0.0 0
M  V30 10 N 8.681 -0.1106 0.0 0
M  V30 11 C 7.2138 0.2012 0.0 0
M  V30 12 C 4.972 -1.2546 0.0 0 CFG=1
M  V30 13 O 3.9683 -0.1398 0.0 0
M  V30 14 C 4.222 -2.5536 0.0 0
M  V30 15 C 2.598 -0.75 0.0 0 CFG=2
M  V30 16 C 2.7548 -2.2417 0.0 0 CFG=2
M  V30 17 C 1.299 0.0 0.0 0
M  V30 18 O 1.6401 -3.2454 0.0 0
M  V30 19 O 0.0 -0.75 0.0 0
M  V30 END ATOM
M  V30 BEGIN BOND
M  V30 1 1 1 2
M  V30 2 2 2 3
M  V30 3 1 2 4
M  V30 4 1 3 5
M  V30 5 2 4 6
M  V30 6 1 5 7
M  V30 7 2 5 8
M  V30 8 1 6 9
M  V30 9 1 8 10
M  V30 10 1 9 11
M  V30 11 1 12 9 CFG=3
M  V30 12 1 12 13
M  V30 13 1 12 14
M  V30 14 1 15 13
M  V30 15 1 16 14
M  V30 16 1 15 17 CFG=3
M  V30 17 1 16 18 CFG=1
M  V30 18 1 17 19
M  V30 19 1 6 8
M  V30 20 2 10 11
M  V30 21 1 15 16
M  V30 END BOND
M  V30 BEGIN COLLECTION
M  V30 MDLV30/STERAC1 ATOMS=(3 12 15 16)
M  V30 END COLLECTION
M  V30 END CTAB
M  END
>  <Molecule Name>


>  <status>
-

>  <cas>
4291-63-8

>  <name>
CLADRIBINE

>  <ID>
701

>  <Smiles>
Nc1c2ncn([C@H](C3)O[C@@H](CO)[C@@H]3O)c2nc(Cl)n1

$$$$
_c001
Actelion Java MolfileCreator 2.0

  0  0  0  0  0  0              0 V3000
M  V30 BEGIN CTAB
M  V30 COUNTS 17 18 0 0 0
M  V30 BEGIN ATOM
M  V30 1 Cl 2.598 1.0 0.0 0
M  V30 2 C 2.598 0.0 0.0 0
M  V30 3 C 1.732 -0.5 0.0 0
M  V30 4 C 3.4641 -0.4999 0.0 0
M  V30 5 O 0.866 0.0 0.0 0
M  V30 6 C 1.732 -1.5 0.0 0
M  V30 7 C 3.4641 -1.4999 0.0 0
M  V30 8 C 0.0 -0.5 0.0 0
M  V30 9 C 2.598 -1.9999 0.0 0
M  V30 10 Cl 4.3301 -1.9999 0.0 0
M  V30 11 C -0.866 0.0 0.0 0
M  V30 12 C 0.0 -1.4999 0.0 0
M  V30 13 O -0.866 1.0 0.0 0
M  V30 14 C -1.732 -0.4999 0.0 0
M  V30 15 C -0.866 -1.9999 0.0 0
M  V30 16 C -1.732 -1.4999 0.0 0
M  V30 17 Cl -2.598 -1.9999 0.0 0
M  V30 END ATOM
M  V30 BEGIN BOND
M  V30 1 1 1 2
M  V30 2 2 2 3
M  V30 3 1 2 4
M  V30 4 1 3 5
M  V30 5 1 3 6
M  V30 6 2 4 7
M  V30 7 1 5 8
M  V30 8 2 6 9
M  V30 9 1 7 10
M  V30 10 2 8 11
M  V30 11 1 8 12
M  V30 12 1 11 13
M  V30 13 1 11 14
M  V30 14 2 12 15
M  V30 15 2 14 16
M  V30 16 1 16 17
M  V30 17 1 7 9
M  V30 18 1 15 16
M  V30 END BOND
M  V30 END CTAB
M  END
>  <Molecule Name>
_c001

>  <status>
DISCONTINUED

>  <cas>
3380-34-5

>  <name>
TRICLOSAN

>  <ID>
702

>  <Smiles>
Oc(cc(cc1)Cl)c1Oc(ccc(Cl)c1)c1Cl

$$$$

Actelion Java MolfileCreator 2.0

  0  0  0  0  0  0              0 V3000
M  V30 BEGIN CTAB
M  V30 COUNTS 31 35 0 0 0
M  V30 BEGIN ATOM
M  V30 1 O -2.5148 8.3084 0.0 0
M  V30 2 C -1.6306 7.0914 0.0 0
M  V30 3 C -0.1345 7.2487 0.0 0
M  V30 4 C -2.2424 5.7172 0.0 0
M  V30 5 C 0.7495 6.0317 0.0 0
M  V30 6 C -1.3582 4.5002 0.0 0
M  V30 7 C 0.1377 4.6574 0.0 0 CFG=2
M  V30 8 C 2.2456 6.1889 0.0 0
M  V30 9 C 1.0219 3.4405 0.0 0 CFG=1
M  V30 10 C -0.474 3.2832 0.0 0
M  V30 11 C 3.1298 4.9719 0.0 0
M  V30 12 C 0.4101 2.0662 0.0 0 CFG=1
M  V30 13 C 2.5179 3.5977 0.0 0 CFG=1
M  V30 14 O -1.0859 1.909 0.0 0
M  V30 15 C 1.2942 0.8493 0.0 0
M  V30 16 C 3.4021 2.3807 0.0 0 CFG=1
M  V30 17 C 2.7903 1.0065 0.0 0 CFG=1
M  V30 18 C 4.8981 2.2235 0.0 0
M  V30 19 C 3.9082 0.0 0.0 0 CFG=1
M  V30 20 C 2.3067 -0.2549 0.0 0
M  V30 21 C 5.2109 0.7521 0.0 0 CFG=2
M  V30 22 O 4.2209 -1.4713 0.0 0
M  V30 23 C 2.6498 -0.8259 0.0 0
M  V30 24 O 6.3288 -0.2544 0.0 0
M  V30 25 C 5.7169 -1.6286 0.0 0 CFG=2
M  V30 26 O 2.6054 -2.2564 0.0 0
M  V30 27 C 1.3027 0.0 0.0 0
M  V30 28 C 6.4691 -2.9313 0.0 0
M  V30 29 O 0.0 -0.7521 0.0 0
M  V30 30 C 5.7169 -4.2341 0.0 0
M  V30 31 C 6.4691 -5.5368 0.0 0
M  V30 END ATOM
M  V30 BEGIN BOND
M  V30 1 2 1 2
M  V30 2 1 2 3
M  V30 3 1 2 4
M  V30 4 2 3 5
M  V30 5 2 4 6
M  V30 6 1 7 5
M  V30 7 1 5 8
M  V30 8 1 9 7
M  V30 9 1 7 10 CFG=3
M  V30 10 1 8 11
M  V30 11 1 9 12 CFG=3
M  V30 12 1 13 9
M  V30 13 1 12 14 CFG=3
M  V30 14 1 12 15
M  V30 15 1 16 13
M  V30 16 1 17 15
M  V30 17 1 16 18 CFG=3
M  V30 18 1 19 17
M  V30 19 1 17 20 CFG=3
M  V30 20 1 21 18
M  V30 21 1 19 22
M  V30 22 1 19 23 CFG=3
M  V30 23 1 21 24 CFG=1
M  V30 24 1 25 22
M  V30 25 2 23 26
M  V30 26 1 23 27
M  V30 27 1 25 28 CFG=3
M  V30 28 1 27 29
M  V30 29 1 28 30
M  V30 30 1 30 31
M  V30 31 1 6 7
M  V30 32 1 13 11 CFG=1
M  V30 33 1 16 17
M  V30 34 1 19 21
M  V30 35 1 24 25
M  V30 END BOND
M  V30 BEGIN COLLECTION
M  V30 MDLV30/STERAC1 ATOMS=(9 7 9 12 13 16 17 19 21 25)
M  V30 END COLLECTION
M  V30 END CTAB
M  END
>  <Molecule Name>


>  <status>
-

>  <cas>
51333-22-3

>  <name>
BUDESONIDE

>  <ID>
703

>  <Smiles>
CCC[C@@H](O[C@@H]1C[C@@H]([C@H](CC2)[C@H]3[C@@](C)(C=C4)C2=CC4=O)[C@]2(C)C[C@@H]3O)O[C@@]12C(CO)=O

$$$$

Actelion Java MolfileCreator 2.0

  0  0  0  0  0  0              0 V3000
M  V30 BEGIN CTAB
M  V30 COUNTS 12 12 0 0 0
M  V30 BEGIN ATOM
M  V30 1 O 2.598 2.2499 0.0 0
M  V30 2 C 1.299 1.4999 0.0 0
M  V30 3 O 0.0 2.25 0.0 0 CHG=-1
M  V30 4 C 1.299 0.0 0.0 0
M  V30 5 C 0.0 -0.75 0.0 0
M  V30 6 C -1.299 0.0 0.0 0
M  V30 7 C 0.0 -2.2499 0.0 0
M  V30 8 C 1.299 -1.5 0.0 0
M  V30 9 C -2.598 -0.7499 0.0 0
M  V30 10 C -1.299 -2.9999 0.0 0
M  V30 11 N 2.598 -0.75 0.0 0
M  V30 12 C -2.598 -2.2499 0.0 0
M  V30 END ATOM
M  V30 BEGIN BOND
M  V30 1 2 1 2
M  V30 2 1 2 3
M  V30 3 1 2 4
M  V30 4 1 4 5
M  V30 5 1 5 6
M  V30 6 1 5 7
M  V30 7 1 5 8
M  V30 8 1 6 9
M  V30 9 1 7 10
M  V30 10 1 8 11
M  V30 11 1 9 12
M  V30 12 1 10 12
M  V30 END BOND
M  V30 END CTAB
M  END
>  <Molecule Name>


>  <status>
-

>  <cas>
60142-96-3

>  <name>
GABAPENTIN

>  <ID>
704

>  <Smiles>
NCC1(CC([O-])=O)CCCCC1

$$$$

Actelion Java MolfileCreator 2.0

  0  0  0  0  0  0              0 V3000
M  V30 BEGIN CTAB
M  V30 COUNTS 23 26 0 0 0
M  V30 BEGIN ATOM
M  V30 1 O 2.598 0.0 0.0 0
M  V30 2 C 1.732 -0.5 0.0 0
M  V30 3 N 0.866 0.0 0.0 0
M  V30 4 C 1.732 -1.5 0.0 0
M  V30 5 C 0.0 -0.5 0.0 0 CFG=2
M  V30 6 N 0.923 -2.0877 0.0 0
M  V30 7 C 2.541 -2.0877 0.0 0
M  V30 8 C -0.866 0.0 0.0 0
M  V30 9 C 0.0 -1.4999 0.0 0
M  V30 10 N 1.232 -3.0388 0.0 0
M  V30 11 C 2.232 -3.0388 0.0 0
M  V30 12 C 3.5192 -1.8798 0.0 0
M  V30 13 C -1.732 -0.4999 0.0 0 CFG=1
M  V30 14 C -0.866 -1.9999 0.0 0 CFG=2
M  V30 15 C 0.6442 -3.8478 0.0 0
M  V30 16 C 2.9011 -3.7819 0.0 0
M  V30 17 C 4.1883 -2.623 0.0 0
M  V30 18 N -1.732 -1.4999 0.0 0
M  V30 19 C -2.8867 -1.1666 0.0 0
M  V30 20 C -2.0207 -2.6666 0.0 0
M  V30 21 C 3.8793 -3.574 0.0 0
M  V30 22 C -2.5188 -1.9542 0.0 0
M  V30 23 C -2.9192 -2.1854 0.0 0
M  V30 END ATOM
M  V30 BEGIN BOND
M  V30 1 2 1 2
M  V30 2 1 2 3
M  V30 3 1 2 4
M  V30 4 1 5 3 CFG=1
M  V30 5 2 4 6
M  V30 6 1 4 7
M  V30 7 1 5 8
M  V30 8 1 5 9
M  V30 9 1 6 10
M  V30 10 2 7 11
M  V30 11 1 7 12
M  V30 12 1 13 8
M  V30 13 1 14 9
M  V30 14 1 10 15
M  V30 15 1 11 16
M  V30 16 2 12 17
M  V30 17 1 13 18
M  V30 18 1 13 19 CFG=1
M  V30 19 1 14 20 CFG=1
M  V30 20 2 16 21
M  V30 21 1 18 22
M  V30 22 1 19 23
M  V30 23 1 10 11
M  V30 24 1 14 18
M  V30 25 1 17 21
M  V30 26 1 20 23
M  V30 END BOND
M  V30 BEGIN COLLECTION
M  V30 MDLV30/STEABS ATOMS=(3 5 13 14)
M  V30 END COLLECTION
M  V30 END CTAB
M  END
>  <Molecule Name>


>  <status>
-

>  <cas>
109889-09-0

>  <name>
GRANISETRON

>  <ID>
705

>  <Smiles>
Cn1nc(C(N[C@@H]2C[C@H](CCC3)N(C)[C@H]3C2)=O)c2c1cccc2

$$$$

Actelion Java MolfileCreator 2.0

  0  0  0  0  0  0              0 V3000
M  V30 BEGIN CTAB
M  V30 COUNTS 31 33 0 0 0
M  V30 BEGIN ATOM
M  V30 1 S 7.5108 -2.5684 0.0 0
M  V30 2 C 8.0108 -1.7024 0.0 0
M  V30 3 C 8.18 -3.3116 0.0 0
M  V30 4 S 8.989 -1.9103 0.0 0
M  V30 5 C 7.0327 -1.4945 0.0 0
M  V30 6 C 8.5108 -0.8364 0.0 0
M  V30 7 C 9.0935 -2.9048 0.0 0
M  V30 8 N 6.9282 -0.5 0.0 0
M  V30 9 C 7.8417 -0.0932 0.0 0 CFG=2
M  V30 10 C 6.0621 0.0 0.0 0
M  V30 11 C 8.0496 0.8848 0.0 0
M  V30 12 O 6.0621 0.9999 0.0 0
M  V30 13 C 5.1961 -0.5 0.0 0 CFG=1
M  V30 14 O 7.3065 1.554 0.0 0
M  V30 15 O 9.0007 1.1939 0.0 0 CHG=-1
M  V30 16 N 4.3301 0.0 0.0 0
M  V30 17 C 5.1961 -1.4999 0.0 0
M  V30 18 C 3.4641 -0.5 0.0 0 CFG=2
M  V30 19 C 2.598 0.0 0.0 0
M  V30 20 C 3.4641 -1.5 0.0 0
M  V30 21 O 2.598 1.0 0.0 0
M  V30 22 O 1.732 -0.5 0.0 0
M  V30 23 C 2.598 -2.0 0.0 0
M  V30 24 C 0.866 0.0 0.0 0
M  V30 25 C 2.598 -3.0 0.0 0
M  V30 26 C 0.0 -0.5 0.0 0
M  V30 27 C 1.732 -3.4999 0.0 0
M  V30 28 C 3.4641 -3.5 0.0 0
M  V30 29 C 1.732 -4.5 0.0 0
M  V30 30 C 3.4641 -4.5 0.0 0
M  V30 31 C 2.598 -5.0 0.0 0
M  V30 END ATOM
M  V30 BEGIN BOND
M  V30 1 1 1 2
M  V30 2 1 1 3
M  V30 3 1 2 4
M  V30 4 1 2 5
M  V30 5 1 2 6
M  V30 6 1 3 7
M  V30 7 1 5 8
M  V30 8 1 9 6
M  V30 9 1 8 10
M  V30 10 1 9 11 CFG=3
M  V30 11 2 10 12
M  V30 12 1 13 10
M  V30 13 2 11 14
M  V30 14 1 11 15
M  V30 15 1 13 16 CFG=3
M  V30 16 1 13 17
M  V30 17 1 18 16 CFG=1
M  V30 18 1 18 19
M  V30 19 1 18 20
M  V30 20 2 19 21
M  V30 21 1 19 22
M  V30 22 1 20 23
M  V30 23 1 22 24
M  V30 24 1 23 25
M  V30 25 1 24 26
M  V30 26 2 25 27
M  V30 27 1 25 28
M  V30 28 1 27 29
M  V30 29 2 28 30
M  V30 30 2 29 31
M  V30 31 1 4 7
M  V30 32 1 8 9
M  V30 33 1 30 31
M  V30 END BOND
M  V30 BEGIN COLLECTION
M  V30 MDLV30/STERAC1 ATOMS=(3 9 13 18)
M  V30 END COLLECTION
M  V30 END CTAB
M  END
>  <Molecule Name>


>  <status>
DISCONTINUED

>  <cas>
83647-97-6

>  <name>
SPIRAPRIL

>  <ID>
706

>  <Smiles>
CCOC([C@H](CCc1ccccc1)N[C@@H](C)C(N(CC1(C2)SCCS1)[C@@H]2C([O-])=O)=O)=O

$$$$

Actelion Java MolfileCreator 2.0

  0  0  0  0  0  0              0 V3000
M  V30 BEGIN CTAB
M  V30 COUNTS 16 17 0 0 0
M  V30 BEGIN ATOM
M  V30 1 Cl 1.299 0.0 0.0 0
M  V30 2 C 0.0 -0.75 0.0 0
M  V30 3 C -1.299 0.0 0.0 0
M  V30 4 C 0.0 -2.25 0.0 0
M  V30 5 Cl -1.299 1.5 0.0 0
M  V30 6 C -2.598 -0.7499 0.0 0
M  V30 7 C 1.299 -3.0 0.0 0
M  V30 8 C -1.299 -2.9999 0.0 0
M  V30 9 C -2.598 -2.2499 0.0 0
M  V30 10 N 1.299 -4.5 0.0 0
M  V30 11 C 2.598 -2.25 0.0 0
M  V30 12 N 2.598 -5.25 0.0 0
M  V30 13 N 3.8971 -3.0 0.0 0
M  V30 14 N 2.598 -0.75 0.0 0
M  V30 15 C 3.8971 -4.5 0.0 0
M  V30 16 N 5.1961 -5.25 0.0 0
M  V30 END ATOM
M  V30 BEGIN BOND
M  V30 1 1 1 2
M  V30 2 2 2 3
M  V30 3 1 2 4
M  V30 4 1 3 5
M  V30 5 1 3 6
M  V30 6 1 4 7
M  V30 7 2 4 8
M  V30 8 2 6 9
M  V30 9 2 7 10
M  V30 10 1 7 11
M  V30 11 1 10 12
M  V30 12 2 11 13
M  V30 13 1 11 14
M  V30 14 2 12 15
M  V30 15 1 15 16
M  V30 16 1 8 9
M  V30 17 1 13 15
M  V30 END BOND
M  V30 END CTAB
M  END
>  <Molecule Name>


>  <status>
-

>  <cas>
84057-84-1

>  <name>
LAMOTRIGINE

>  <ID>
707

>  <Smiles>
Nc1nc(N)nnc1-c1cccc(Cl)c1Cl

$$$$

Actelion Java MolfileCreator 2.0

  0  0  0  0  0  0              0 V3000
M  V30 BEGIN CTAB
M  V30 COUNTS 22 22 0 0 0
M  V30 BEGIN ATOM
M  V30 1 F 6.1961 -4.5 0.0 0
M  V30 2 C 5.1961 -4.4999 0.0 0
M  V30 3 F 5.1961 -5.4999 0.0 0
M  V30 4 F 4.1961 -4.4999 0.0 0
M  V30 5 C 5.1961 -3.4999 0.0 0
M  V30 6 C 6.0621 -3.0 0.0 0
M  V30 7 C 4.3301 -2.9999 0.0 0
M  V30 8 C 6.0621 -2.0 0.0 0
M  V30 9 C 4.3301 -1.9999 0.0 0
M  V30 10 C 5.1961 -1.4999 0.0 0
M  V30 11 C 5.1961 -0.5 0.0 0
M  V30 12 N 6.0621 0.0 0.0 0
M  V30 13 C 4.3301 0.0 0.0 0
M  V30 14 O 6.0621 0.9999 0.0 0
M  V30 15 C 3.4641 -0.5 0.0 0
M  V30 16 C 6.9282 1.4999 0.0 0
M  V30 17 C 2.598 0.0 0.0 0
M  V30 18 C 6.9282 2.4999 0.0 0
M  V30 19 C 1.732 -0.5 0.0 0
M  V30 20 N 7.7942 2.9999 0.0 0
M  V30 21 O 0.866 0.0 0.0 0
M  V30 22 C 0.0 -0.5 0.0 0
M  V30 END ATOM
M  V30 BEGIN BOND
M  V30 1 1 1 2
M  V30 2 1 2 3
M  V30 3 1 2 4
M  V30 4 1 2 5
M  V30 5 2 5 6
M  V30 6 1 5 7
M  V30 7 1 6 8
M  V30 8 2 7 9
M  V30 9 2 8 10
M  V30 10 1 10 11
M  V30 11 2 11 12
M  V30 12 1 11 13
M  V30 13 1 12 14
M  V30 14 1 13 15
M  V30 15 1 14 16
M  V30 16 1 15 17
M  V30 17 1 16 18
M  V30 18 1 17 19
M  V30 19 1 18 20
M  V30 20 1 19 21
M  V30 21 1 21 22
M  V30 22 1 9 10
M  V30 END BOND
M  V30 END CTAB
M  END
>  <Molecule Name>


>  <status>
-

>  <cas>
54739-18-3

>  <name>
FLUVOXAMINE

>  <ID>
708

>  <Smiles>
COCCCC/C(/c1ccc(C(F)(F)F)cc1)=N\OCCN

$$$$

Actelion Java MolfileCreator 2.0

  0  0  0  0  0  0              0 V3000
M  V30 BEGIN CTAB
M  V30 COUNTS 33 35 0 0 0
M  V30 BEGIN ATOM
M  V30 1 Cl 9.5262 1.0 0.0 0
M  V30 2 C 9.5262 0.0 0.0 0
M  V30 3 C 8.6602 -0.4999 0.0 0
M  V30 4 C 10.3923 -0.4999 0.0 0
M  V30 5 C 8.6602 -1.5 0.0 0
M  V30 6 C 7.7942 0.0 0.0 0
M  V30 7 C 10.3923 -1.4999 0.0 0
M  V30 8 C 7.7942 -2.0 0.0 0
M  V30 9 C 9.5262 -1.9999 0.0 0
M  V30 10 C 6.9282 -0.5 0.0 0
M  V30 11 Cl 11.2583 -1.9999 0.0 0
M  V30 12 C 6.9282 -1.4999 0.0 0
M  V30 13 C 7.7942 -2.9999 0.0 0
M  V30 14 C 6.0621 0.0 0.0 0 CFG=1
M  V30 15 C 6.0621 -2.0 0.0 0
M  V30 16 C 6.9282 -3.4999 0.0 0
M  V30 17 O 6.0621 0.9999 0.0 0
M  V30 18 C 5.1961 -0.5 0.0 0
M  V30 19 C 6.0621 -3.0 0.0 0
M  V30 20 C 6.9282 -4.4999 0.0 0
M  V30 21 C 4.3301 0.0 0.0 0
M  V30 22 F 7.9282 -4.4999 0.0 0
M  V30 23 F 6.9282 -5.4999 0.0 0
M  V30 24 F 5.9282 -4.5 0.0 0
M  V30 25 N 3.4641 -0.5 0.0 0
M  V30 26 C 3.4641 -1.5 0.0 0
M  V30 27 C 2.598 0.0 0.0 0
M  V30 28 C 4.3301 -2.0 0.0 0
M  V30 29 C 1.732 -0.5 0.0 0
M  V30 30 C 4.3301 -3.0 0.0 0
M  V30 31 C 0.866 0.0 0.0 0
M  V30 32 C 5.1961 -3.5 0.0 0
M  V30 33 C 0.0 -0.5 0.0 0
M  V30 END ATOM
M  V30 BEGIN BOND
M  V30 1 1 1 2
M  V30 2 1 2 3
M  V30 3 2 2 4
M  V30 4 1 3 5
M  V30 5 2 3 6
M  V30 6 1 4 7
M  V30 7 2 5 8
M  V30 8 1 5 9
M  V30 9 1 6 10
M  V30 10 1 7 11
M  V30 11 1 8 12
M  V30 12 1 8 13
M  V30 13 1 14 10
M  V30 14 1 12 15
M  V30 15 2 13 16
M  V30 16 1 14 17 CFG=3
M  V30 17 1 14 18
M  V30 18 2 15 19
M  V30 19 1 16 20
M  V30 20 1 18 21
M  V30 21 1 20 22
M  V30 22 1 20 23
M  V30 23 1 20 24
M  V30 24 1 21 25
M  V30 25 1 25 26
M  V30 26 1 25 27
M  V30 27 1 26 28
M  V30 28 1 27 29
M  V30 29 1 28 30
M  V30 30 1 29 31
M  V30 31 1 30 32
M  V30 32 1 31 33
M  V30 33 2 7 9
M  V30 34 2 10 12
M  V30 35 1 16 19
M  V30 END BOND
M  V30 BEGIN COLLECTION
M  V30 MDLV30/STERAC1 ATOMS=(1 14)
M  V30 END COLLECTION
M  V30 END CTAB
M  END
>  <Molecule Name>


>  <status>
DISCONTINUED

>  <cas>
69756-53-2

>  <name>
HALOFANTRINE

>  <ID>
709

>  <Smiles>
CCCCN(CCCC)CCC(c1c(ccc(C(F)(F)F)c2)c2c(cc(cc2Cl)Cl)c2c1)O

$$$$

Actelion Java MolfileCreator 2.0

  0  0  0  0  0  0              0 V3000
M  V30 BEGIN CTAB
M  V30 COUNTS 26 29 0 0 0
M  V30 BEGIN ATOM
M  V30 1 Cl 0.866 0.0 0.0 0
M  V30 2 C 0.0 -0.5 0.0 0
M  V30 3 C -0.866 0.0 0.0 0
M  V30 4 C 0.0 -1.4999 0.0 0
M  V30 5 C -1.732 -0.4999 0.0 0
M  V30 6 C -0.866 -1.9999 0.0 0
M  V30 7 C -1.732 -1.4999 0.0 0
M  V30 8 C -2.598 -1.9999 0.0 0 CFG=1
M  V30 9 C -3.4641 -1.4999 0.0 0
M  V30 10 C -2.598 -2.9999 0.0 0
M  V30 11 C -4.3301 -1.9999 0.0 0
M  V30 12 C -3.4641 -3.4999 0.0 0
M  V30 13 C -4.3301 -2.9999 0.0 0 CFG=1
M  V30 14 C -5.1961 -3.4999 0.0 0
M  V30 15 C -6.0621 -2.9999 0.0 0
M  V30 16 C -5.1961 -4.4999 0.0 0
M  V30 17 O -6.0621 -1.9999 0.0 0
M  V30 18 C -6.9282 -3.4999 0.0 0
M  V30 19 O -4.3301 -4.9999 0.0 0
M  V30 20 C -6.0621 -4.9999 0.0 0
M  V30 21 C -6.9282 -4.4999 0.0 0
M  V30 22 C -7.7942 -2.9999 0.0 0
M  V30 23 O -6.0621 -5.9999 0.0 0
M  V30 24 C -7.7942 -4.9999 0.0 0
M  V30 25 C -8.6602 -3.4999 0.0 0
M  V30 26 C -8.6602 -4.4999 0.0 0
M  V30 END ATOM
M  V30 BEGIN BOND
M  V30 1 1 1 2
M  V30 2 2 2 3
M  V30 3 1 2 4
M  V30 4 1 3 5
M  V30 5 2 4 6
M  V30 6 2 5 7
M  V30 7 1 8 7 CFG=3
M  V30 8 1 8 9
M  V30 9 1 8 10
M  V30 10 1 9 11
M  V30 11 1 10 12
M  V30 12 1 13 11
M  V30 13 1 13 14 CFG=1
M  V30 14 2 14 15
M  V30 15 1 14 16
M  V30 16 1 15 17
M  V30 17 1 15 18
M  V30 18 2 16 19
M  V30 19 1 16 20
M  V30 20 2 18 21
M  V30 21 1 18 22
M  V30 22 2 20 23
M  V30 23 1 21 24
M  V30 24 2 22 25
M  V30 25 2 24 26
M  V30 26 1 6 7
M  V30 27 1 12 13
M  V30 28 1 20 21
M  V30 29 1 25 26
M  V30 END BOND
M  V30 BEGIN COLLECTION
M  V30 MDLV30/STEABS ATOMS=(2 8 13)
M  V30 END COLLECTION
M  V30 END CTAB
M  END
>  <Molecule Name>


>  <status>
-

>  <cas>
95233-18-4

>  <name>
ATOVAQUONE

>  <ID>
710

>  <Smiles>
OC(c(cccc1)c1C1=O)=C([C@H](CC2)CC[C@@H]2c(cc2)ccc2Cl)C1=O

$$$$

Actelion Java MolfileCreator 2.0

  0  0  0  0  0  0              0 V3000
M  V30 BEGIN CTAB
M  V30 COUNTS 30 32 0 0 0
M  V30 BEGIN ATOM
M  V30 1 F 4.0601 -4.171 0.0 0
M  V30 2 C 4.8032 -3.5019 0.0 0
M  V30 3 C 5.7543 -3.8109 0.0 0
M  V30 4 C 4.5953 -2.5237 0.0 0
M  V30 5 C 6.4974 -3.1418 0.0 0
M  V30 6 C 5.3385 -1.8546 0.0 0
M  V30 7 C 6.2895 -2.1636 0.0 0
M  V30 8 C 7.0327 -1.4945 0.0 0
M  V30 9 C 8.0108 -1.7024 0.0 0
M  V30 10 C 6.9282 -0.5 0.0 0
M  V30 11 C 8.5108 -0.8364 0.0 0
M  V30 12 C 8.5108 -2.5684 0.0 0
M  V30 13 N 7.8417 -0.0932 0.0 0
M  V30 14 C 6.0621 0.0 0.0 0
M  V30 15 C 9.5108 -0.8364 0.0 0
M  V30 16 C 9.5108 -2.5684 0.0 0
M  V30 17 C 8.0496 0.8848 0.0 0
M  V30 18 C 5.1961 -0.5 0.0 0
M  V30 19 C 10.0108 -1.7024 0.0 0
M  V30 20 C 9.0007 1.1939 0.0 0
M  V30 21 C 7.3065 1.554 0.0 0
M  V30 22 C 4.3301 0.0 0.0 0 CFG=1
M  V30 23 O 4.3301 1.0 0.0 0
M  V30 24 C 3.4641 -0.5 0.0 0
M  V30 25 C 2.598 0.0 0.0 0 CFG=1
M  V30 26 O 2.598 1.0 0.0 0
M  V30 27 C 1.732 -0.5 0.0 0
M  V30 28 C 0.866 0.0 0.0 0
M  V30 29 O 0.866 1.0 0.0 0
M  V30 30 O 0.0 -0.5 0.0 0 CHG=-1
M  V30 END ATOM
M  V30 BEGIN BOND
M  V30 1 1 1 2
M  V30 2 2 2 3
M  V30 3 1 2 4
M  V30 4 1 3 5
M  V30 5 2 4 6
M  V30 6 2 5 7
M  V30 7 1 7 8
M  V30 8 1 8 9
M  V30 9 2 8 10
M  V30 10 2 9 11
M  V30 11 1 9 12
M  V30 12 1 10 13
M  V30 13 1 10 14
M  V30 14 1 11 15
M  V30 15 2 12 16
M  V30 16 1 13 17
M  V30 17 2 14 18
M  V30 18 2 15 19
M  V30 19 1 17 20
M  V30 20 1 17 21
M  V30 21 1 22 18
M  V30 22 1 22 23 CFG=3
M  V30 23 1 22 24
M  V30 24 1 25 24
M  V30 25 1 25 26 CFG=3
M  V30 26 1 25 27
M  V30 27 1 27 28
M  V30 28 2 28 29
M  V30 29 1 28 30
M  V30 30 1 6 7
M  V30 31 1 11 13
M  V30 32 1 16 19
M  V30 END BOND
M  V30 BEGIN COLLECTION
M  V30 MDLV30/STERAC1 ATOMS=(2 22 25)
M  V30 END COLLECTION
M  V30 END CTAB
M  END
>  <Molecule Name>


>  <status>
-

>  <cas>
93957-54-1

>  <name>
FLUVASTATIN

>  <ID>
711

>  <Smiles>
CC(C)n1c(cccc2)c2c(-c(cc2)ccc2F)c1/C=C/[C@H](C[C@H](CC([O-])=O)O)O

$$$$

Actelion Java MolfileCreator 2.0

  0  0  0  0  0  0              0 V3000
M  V30 BEGIN CTAB
M  V30 COUNTS 62 68 0 0 0
M  V30 BEGIN ATOM
M  V30 1 O 10.4231 0.6345 0.0 0
M  V30 2 C 9.4572 0.8933 0.0 0
M  V30 3 C 9.3267 1.8847 0.0 0 CFG=2
M  V30 4 C 8.8484 0.0999 0.0 0 CFG=1
M  V30 5 C 8.5333 2.4935 0.0 0 CFG=2
M  V30 6 C 10.2505 2.2674 0.0 0 CFG=2
M  V30 7 C 10.1927 1.3847 0.0 0
M  V30 8 O 9.3326 -0.7749 0.0 0
M  V30 9 C 7.7942 0.0 0.0 0
M  V30 10 C 8.6638 3.4849 0.0 0 CFG=2
M  V30 11 C 7.5419 2.363 0.0 0 CFG=1
M  V30 12 O 11.0439 1.6586 0.0 0
M  V30 13 C 10.3811 3.2589 0.0 0
M  V30 14 C 8.8169 -1.6317 0.0 0
M  V30 15 C 6.9282 -0.4999 0.0 0
M  V30 16 C 7.7942 0.9999 0.0 0
M  V30 17 O 7.6724 3.3544 0.0 0
M  V30 18 C 9.5877 3.8676 0.0 0 CFG=2
M  V30 19 C 8.2811 4.4088 0.0 0
M  V30 20 O 7.0262 3.2198 0.0 0
M  V30 21 C 6.9282 1.4999 0.0 0 CFG=1
M  V30 22 O 7.8171 -1.6136 0.0 0
M  V30 23 C 9.3011 -2.5067 0.0 0
M  V30 24 C 6.0621 0.0 0.0 0 CFG=1
M  V30 25 C 6.9282 -1.4999 0.0 0
M  V30 26 C 8.7942 0.9999 0.0 0
M  V30 27 C 8.2942 1.866 0.0 0
M  V30 28 C 7.0636 4.1478 0.0 0
M  V30 29 O 9.205 4.7915 0.0 0
M  V30 30 C 6.0264 3.2016 0.0 0
M  V30 31 O 6.2553 2.2397 0.0 0
M  V30 32 C 6.0621 0.9999 0.0 0
M  V30 33 O 5.1961 -0.5 0.0 0
M  V30 34 O 7.4463 5.0716 0.0 0
M  V30 35 C 6.0894 4.0276 0.0 0
M  V30 36 O 5.5422 2.3266 0.0 0
M  V30 37 C 5.5107 4.0584 0.0 0
M  V30 38 C 4.3301 0.0 0.0 0
M  V30 39 C 4.5109 4.0402 0.0 0
M  V30 40 C 5.9949 4.9333 0.0 0
M  V30 41 O 4.3301 1.0 0.0 0
M  V30 42 C 3.4641 -0.5 0.0 0 CFG=1
M  V30 43 C 3.9952 4.897 0.0 0
M  V30 44 C 5.4792 5.7901 0.0 0
M  V30 45 O 3.4641 -1.5 0.0 0
M  V30 46 C 2.598 0.0 0.0 0 CFG=2
M  V30 47 C 4.4794 5.772 0.0 0
M  V30 48 N 2.598 0.9999 0.0 0
M  V30 49 C 1.732 -0.5 0.0 0
M  V30 50 C 1.732 1.4999 0.0 0
M  V30 51 C 1.732 -1.5 0.0 0
M  V30 52 C 0.866 0.0 0.0 0
M  V30 53 O 0.866 0.9999 0.0 0
M  V30 54 C 1.732 2.4999 0.0 0
M  V30 55 C 0.866 -2.0 0.0 0
M  V30 56 C 0.0 -0.5 0.0 0
M  V30 57 C 0.866 2.9999 0.0 0
M  V30 58 C 2.598 3.0 0.0 0
M  V30 59 C 0.0 -1.5 0.0 0
M  V30 60 C 0.866 3.9999 0.0 0
M  V30 61 C 2.598 4.0 0.0 0
M  V30 62 C 1.732 4.4999 0.0 0
M  V30 END ATOM
M  V30 BEGIN BOND
M  V30 1 2 1 2
M  V30 2 1 3 2
M  V30 3 1 4 2
M  V30 4 1 5 3
M  V30 5 1 6 3
M  V30 6 1 3 7 CFG=1
M  V30 7 1 4 8 CFG=1
M  V30 8 1 4 9
M  V30 9 1 10 5
M  V30 10 1 5 11 CFG=1
M  V30 11 1 6 12 CFG=1
M  V30 12 1 6 13
M  V30 13 1 8 14
M  V30 14 2 9 15
M  V30 15 1 9 16
M  V30 16 1 10 17 CFG=3
M  V30 17 1 18 10
M  V30 18 1 10 19
M  V30 19 1 11 20 CFG=3
M  V30 20 1 21 11
M  V30 21 2 14 22
M  V30 22 1 14 23
M  V30 23 1 24 15
M  V30 24 1 15 25
M  V30 25 1 16 26
M  V30 26 1 16 27
M  V30 27 1 17 28
M  V30 28 1 18 29 CFG=1
M  V30 29 1 20 30
M  V30 30 1 21 31 CFG=1
M  V30 31 1 21 32
M  V30 32 1 24 33 CFG=3
M  V30 33 2 28 34
M  V30 34 1 28 35
M  V30 35 2 30 36
M  V30 36 1 30 37
M  V30 37 1 33 38
M  V30 38 2 37 39
M  V30 39 1 37 40
M  V30 40 2 38 41
M  V30 41 1 42 38
M  V30 42 1 39 43
M  V30 43 2 40 44
M  V30 44 1 42 45 CFG=1
M  V30 45 1 46 42
M  V30 46 2 43 47
M  V30 47 1 46 48 CFG=1
M  V30 48 1 46 49
M  V30 49 1 48 50
M  V30 50 2 49 51
M  V30 51 1 49 52
M  V30 52 2 50 53
M  V30 53 1 50 54
M  V30 54 1 51 55
M  V30 55 2 52 56
M  V30 56 2 54 57
M  V30 57 1 54 58
M  V30 58 2 55 59
M  V30 59 1 57 60
M  V30 60 2 58 61
M  V30 61 2 60 62
M  V30 62 1 13 18
M  V30 63 1 16 21
M  V30 64 1 19 29
M  V30 65 1 24 32
M  V30 66 1 44 47
M  V30 67 1 56 59
M  V30 68 1 61 62
M  V30 END BOND
M  V30 BEGIN COLLECTION
M  V30 MDLV30/STERAC1 ATOMS=(11 3 4 5 6 10 11 18 21 24 42 46)
M  V30 END COLLECTION
M  V30 END CTAB
M  END
>  <Molecule Name>


>  <status>
-

>  <cas>
33069-62-4

>  <name>
PACLITAXEL

>  <ID>
712

>  <Smiles>
CC(C)([C@](C1)([C@@H]([C@@H]([C@@]2([C@H](C[C@H]3O)OC2)OC(C)=O)[C@@]3(C)C([C@H]2OC(C)=O)=O)OC(c3ccccc3)=O)O)C2=C(C)[C@@H]1OC([C@H]([C@@H](c1ccccc1)NC(c1ccccc1)=O)O)=O

$$$$

Actelion Java MolfileCreator 2.0

  0  0  0  0  0  0              0 V3000
M  V30 BEGIN CTAB
M  V30 COUNTS 30 34 0 0 0
M  V30 BEGIN ATOM
M  V30 1 F 9.0441 0.4695 0.0 0
M  V30 2 C 8.0659 0.6774 0.0 0
M  V30 3 C 7.7569 1.6284 0.0 0
M  V30 4 C 7.3968 -0.0657 0.0 0
M  V30 5 C 6.7788 1.8364 0.0 0
M  V30 6 C 6.4187 0.1422 0.0 0
M  V30 7 O 6.2788 2.7024 0.0 0
M  V30 8 C 6.1096 1.0932 0.0 0
M  V30 9 N 5.3006 2.4945 0.0 0
M  V30 10 C 5.1961 1.5 0.0 0
M  V30 11 C 4.3301 1.0 0.0 0
M  V30 12 C 3.4641 1.5 0.0 0
M  V30 13 C 4.3301 0.0 0.0 0
M  V30 14 C 2.598 0.9999 0.0 0
M  V30 15 C 3.4641 -0.4999 0.0 0
M  V30 16 N 2.598 0.0 0.0 0
M  V30 17 C 1.732 -0.5 0.0 0
M  V30 18 C 0.866 0.0 0.0 0
M  V30 19 C 0.0 -0.5 0.0 0
M  V30 20 C -0.866 0.0 0.0 0
M  V30 21 C 0.0 -1.4999 0.0 0
M  V30 22 O -0.866 1.0 0.0 0
M  V30 23 N -1.732 -0.4999 0.0 0
M  V30 24 N -0.866 -1.9999 0.0 0
M  V30 25 C 0.866 -2.0 0.0 0
M  V30 26 C -1.732 -1.4999 0.0 0
M  V30 27 C -2.598 0.0 0.0 0
M  V30 28 C -2.598 -1.9999 0.0 0
M  V30 29 C -3.4641 -0.4999 0.0 0
M  V30 30 C -3.4641 -1.4999 0.0 0
M  V30 END ATOM
M  V30 BEGIN BOND
M  V30 1 1 1 2
M  V30 2 2 2 3
M  V30 3 1 2 4
M  V30 4 1 3 5
M  V30 5 2 4 6
M  V30 6 1 5 7
M  V30 7 2 5 8
M  V30 8 1 7 9
M  V30 9 1 8 10
M  V30 10 1 10 11
M  V30 11 1 11 12
M  V30 12 1 11 13
M  V30 13 1 12 14
M  V30 14 1 13 15
M  V30 15 1 14 16
M  V30 16 1 16 17
M  V30 17 1 17 18
M  V30 18 1 18 19
M  V30 19 1 19 20
M  V30 20 2 19 21
M  V30 21 2 20 22
M  V30 22 1 20 23
M  V30 23 1 21 24
M  V30 24 1 21 25
M  V30 25 1 23 26
M  V30 26 1 23 27
M  V30 27 1 26 28
M  V30 28 1 27 29
M  V30 29 1 28 30
M  V30 30 1 6 8
M  V30 31 2 9 10
M  V30 32 1 15 16
M  V30 33 2 24 26
M  V30 34 1 29 30
M  V30 END BOND
M  V30 END CTAB
M  END
>  <Molecule Name>


>  <status>
-

>  <cas>
106266-06-2

>  <name>
RISPERIDONE

>  <ID>
713

>  <Smiles>
CC(N=C1N2CCCC1)=C(CCN(CC1)CCC1c1noc3c1ccc(F)c3)C2=O

$$$$

Actelion Java MolfileCreator 2.0

  0  0  0  0  0  0              0 V3000
M  V30 BEGIN CTAB
M  V30 COUNTS 19 20 0 0 0
M  V30 BEGIN ATOM
M  V30 1 O -0.866 1.0 0.0 0
M  V30 2 C 0.0 1.5 0.0 0
M  V30 3 C -0.866 0.0 0.0 0
M  V30 4 C 0.866 1.0 0.0 0
M  V30 5 C 0.0 2.5 0.0 0
M  V30 6 C 1.732 1.5 0.0 0
M  V30 7 C 0.866 3.0 0.0 0
M  V30 8 C 1.732 2.5 0.0 0
M  V30 9 C 2.598 1.0 0.0 0 CFG=1
M  V30 10 O 1.732 0.5 0.0 0
M  V30 11 C 2.598 0.0 0.0 0 CFG=2
M  V30 12 C 3.4641 1.4999 0.0 0
M  V30 13 C 3.4641 -0.5 0.0 0
M  V30 14 C 1.732 -0.5 0.0 0
M  V30 15 C 4.3301 1.0 0.0 0
M  V30 16 C 4.3301 0.0 0.0 0
M  V30 17 N 1.732 -1.5 0.0 0
M  V30 18 C 2.598 -2.0 0.0 0
M  V30 19 C 0.866 -2.0 0.0 0
M  V30 END ATOM
M  V30 BEGIN BOND
M  V30 1 1 1 2
M  V30 2 1 1 3
M  V30 3 2 2 4
M  V30 4 1 2 5
M  V30 5 1 4 6
M  V30 6 2 5 7
M  V30 7 2 6 8
M  V30 8 1 9 6
M  V30 9 1 9 10 CFG=1
M  V30 10 1 11 9
M  V30 11 1 9 12
M  V30 12 1 11 13
M  V30 13 1 11 14 CFG=3
M  V30 14 1 12 15
M  V30 15 1 13 16
M  V30 16 1 14 17
M  V30 17 1 17 18
M  V30 18 1 17 19
M  V30 19 1 7 8
M  V30 20 1 15 16
M  V30 END BOND
M  V30 BEGIN COLLECTION
M  V30 MDLV30/STERAC1 ATOMS=(2 9 11)
M  V30 END COLLECTION
M  V30 END CTAB
M  END
>  <Molecule Name>


>  <status>
-

>  <cas>
181289-59-8

>  <name>
TRAMADOL

>  <ID>
714

>  <Smiles>
CN(C)C[C@@H](CCCC1)[C@@]1(c1cccc(OC)c1)O

$$$$

Actelion Java MolfileCreator 2.0

  0  0  0  0  0  0              0 V3000
M  V30 BEGIN CTAB
M  V30 COUNTS 30 33 0 0 0
M  V30 BEGIN ATOM
M  V30 1 O 6.9282 -0.5 0.0 0
M  V30 2 C 7.7942 0.0 0.0 0
M  V30 3 C 6.0621 0.0 0.0 0
M  V30 4 C 7.7942 0.9999 0.0 0
M  V30 5 C 8.6602 -0.4999 0.0 0
M  V30 6 C 5.1961 -0.5 0.0 0 CFG=1
M  V30 7 C 8.6602 1.5 0.0 0
M  V30 8 C 7.051 1.6691 0.0 0
M  V30 9 C 9.5262 0.0 0.0 0
M  V30 10 O 5.1961 -1.4999 0.0 0
M  V30 11 C 4.3301 0.0 0.0 0
M  V30 12 N 8.4523 2.4781 0.0 0
M  V30 13 C 9.5262 1.0 0.0 0
M  V30 14 C 7.4578 2.5826 0.0 0
M  V30 15 C 6.0565 1.5646 0.0 0
M  V30 16 N 3.4641 -0.5 0.0 0
M  V30 17 C 6.87 3.3916 0.0 0
M  V30 18 C 5.4687 2.3736 0.0 0
M  V30 19 C 2.598 0.0 0.0 0
M  V30 20 C 5.8755 3.2871 0.0 0
M  V30 21 C 1.732 -0.5 0.0 0
M  V30 22 O 0.866 0.0 0.0 0
M  V30 23 C 0.0 -0.5 0.0 0
M  V30 24 C -0.866 0.0 0.0 0
M  V30 25 C 0.0 -1.4999 0.0 0
M  V30 26 O -0.866 1.0 0.0 0
M  V30 27 C -1.732 -0.4999 0.0 0
M  V30 28 C -0.866 -1.9999 0.0 0
M  V30 29 C -1.732 1.5 0.0 0
M  V30 30 C -1.732 -1.4999 0.0 0
M  V30 END ATOM
M  V30 BEGIN BOND
M  V30 1 1 1 2
M  V30 2 1 1 3
M  V30 3 2 2 4
M  V30 4 1 2 5
M  V30 5 1 6 3
M  V30 6 1 4 7
M  V30 7 1 4 8
M  V30 8 2 5 9
M  V30 9 1 6 10 CFG=1
M  V30 10 1 6 11
M  V30 11 1 7 12
M  V30 12 2 7 13
M  V30 13 2 8 14
M  V30 14 1 8 15
M  V30 15 1 11 16
M  V30 16 1 14 17
M  V30 17 2 15 18
M  V30 18 1 16 19
M  V30 19 2 17 20
M  V30 20 1 19 21
M  V30 21 1 21 22
M  V30 22 1 22 23
M  V30 23 2 23 24
M  V30 24 1 23 25
M  V30 25 1 24 26
M  V30 26 1 24 27
M  V30 27 2 25 28
M  V30 28 1 26 29
M  V30 29 2 27 30
M  V30 30 1 9 13
M  V30 31 1 12 14
M  V30 32 1 18 20
M  V30 33 1 28 30
M  V30 END BOND
M  V30 BEGIN COLLECTION
M  V30 MDLV30/STERAC1 ATOMS=(1 6)
M  V30 END COLLECTION
M  V30 END CTAB
M  END
>  <Molecule Name>


>  <status>
-

>  <cas>
72956-09-3

>  <name>
CARVEDILOL

>  <ID>
715

>  <Smiles>
COc(cccc1)c1OCCNCC(COc1c(c(cccc2)c2[nH]2)c2ccc1)O

$$$$

Actelion Java MolfileCreator 2.0

  0  0  0  0  0  0              0 V3000
M  V30 BEGIN CTAB
M  V30 COUNTS 36 38 0 0 0
M  V30 BEGIN ATOM
M  V30 1 O 8.6602 1.5 0.0 0
M  V30 2 C 7.7942 1.0 0.0 0
M  V30 3 O 6.9282 1.4999 0.0 0 CHG=-1
M  V30 4 C 7.7942 0.0 0.0 0 CFG=1
M  V30 5 N 6.9282 -0.5 0.0 0
M  V30 6 C 8.6602 -0.4999 0.0 0
M  V30 7 C 6.0621 0.0 0.0 0
M  V30 8 C 6.9282 -1.4999 0.0 0
M  V30 9 C 8.6602 -1.4999 0.0 0
M  V30 10 O 6.0621 0.9999 0.0 0
M  V30 11 C 5.1961 -0.5 0.0 0 CFG=1
M  V30 12 C 7.7942 -2.0 0.0 0
M  V30 13 C 9.5262 -1.9999 0.0 0
M  V30 14 N 4.3301 0.0 0.0 0
M  V30 15 C 5.1961 -1.4999 0.0 0
M  V30 16 C 7.7942 -3.0 0.0 0
M  V30 17 C 9.5262 -2.9999 0.0 0
M  V30 18 C 3.4641 -0.5 0.0 0 CFG=2
M  V30 19 C 8.6602 -3.4999 0.0 0
M  V30 20 O 10.3923 -3.4999 0.0 0
M  V30 21 C 2.598 0.0 0.0 0
M  V30 22 C 3.4641 -1.5 0.0 0
M  V30 23 O 8.6602 -4.4999 0.0 0
M  V30 24 C 11.2583 -2.9999 0.0 0
M  V30 25 O 2.598 1.0 0.0 0
M  V30 26 O 1.732 -0.5 0.0 0
M  V30 27 C 2.598 -2.0 0.0 0
M  V30 28 C 9.5262 -4.9999 0.0 0
M  V30 29 C 0.866 0.0 0.0 0
M  V30 30 C 2.598 -3.0 0.0 0
M  V30 31 C 0.0 -0.5 0.0 0
M  V30 32 C 1.732 -3.4999 0.0 0
M  V30 33 C 3.4641 -3.5 0.0 0
M  V30 34 C 1.732 -4.5 0.0 0
M  V30 35 C 3.4641 -4.5 0.0 0
M  V30 36 C 2.598 -5.0 0.0 0
M  V30 END ATOM
M  V30 BEGIN BOND
M  V30 1 2 1 2
M  V30 2 1 2 3
M  V30 3 1 4 2 CFG=3
M  V30 4 1 4 5
M  V30 5 1 4 6
M  V30 6 1 5 7
M  V30 7 1 5 8
M  V30 8 1 6 9
M  V30 9 2 7 10
M  V30 10 1 11 7
M  V30 11 1 8 12
M  V30 12 1 9 13
M  V30 13 1 11 14 CFG=3
M  V30 14 1 11 15
M  V30 15 1 12 16
M  V30 16 2 13 17
M  V30 17 1 18 14 CFG=1
M  V30 18 2 16 19
M  V30 19 1 17 20
M  V30 20 1 18 21
M  V30 21 1 18 22
M  V30 22 1 19 23
M  V30 23 1 20 24
M  V30 24 2 21 25
M  V30 25 1 21 26
M  V30 26 1 22 27
M  V30 27 1 23 28
M  V30 28 1 26 29
M  V30 29 1 27 30
M  V30 30 1 29 31
M  V30 31 2 30 32
M  V30 32 1 30 33
M  V30 33 1 32 34
M  V30 34 2 33 35
M  V30 35 2 34 36
M  V30 36 2 9 12
M  V30 37 1 17 19
M  V30 38 1 35 36
M  V30 END BOND
M  V30 BEGIN COLLECTION
M  V30 MDLV30/STERAC1 ATOMS=(3 4 11 18)
M  V30 END COLLECTION
M  V30 END CTAB
M  END
>  <Molecule Name>


>  <status>
-

>  <cas>
103775-10-6

>  <name>
MOEXIPRIL

>  <ID>
716

>  <Smiles>
CCOC([C@H](CCc1ccccc1)N[C@@H](C)C(N(Cc(cc1OC)c(C2)cc1OC)[C@@H]2C([O-])=O)=O)=O

$$$$

Actelion Java MolfileCreator 2.0

  0  0  0  0  0  0              0 V3000
M  V30 BEGIN CTAB
M  V30 COUNTS 16 18 0 0 0
M  V30 BEGIN ATOM
M  V30 1 Cl 8.173 0.5046 0.0 0
M  V30 2 C 7.423 1.8036 0.0 0
M  V30 3 C 8.173 3.1026 0.0 0
M  V30 4 C 5.923 1.8036 0.0 0
M  V30 5 Cl 9.673 3.1026 0.0 0
M  V30 6 C 7.423 4.4017 0.0 0
M  V30 7 C 5.173 3.1026 0.0 0
M  V30 8 C 5.173 0.5046 0.0 0
M  V30 9 C 5.923 4.4017 0.0 0
M  V30 10 N 3.673 3.1026 0.0 0
M  V30 11 N 3.673 0.5046 0.0 0
M  V30 12 C 2.923 1.8036 0.0 0
M  V30 13 C 2.6693 -0.6101 0.0 0
M  V30 14 N 1.4558 1.4917 0.0 0
M  V30 15 C 1.299 0.0 0.0 0
M  V30 16 O 0.0 -0.75 0.0 0
M  V30 END ATOM
M  V30 BEGIN BOND
M  V30 1 1 1 2
M  V30 2 2 2 3
M  V30 3 1 2 4
M  V30 4 1 3 5
M  V30 5 1 3 6
M  V30 6 2 4 7
M  V30 7 1 4 8
M  V30 8 2 6 9
M  V30 9 1 7 10
M  V30 10 1 8 11
M  V30 11 2 10 12
M  V30 12 1 11 13
M  V30 13 1 12 14
M  V30 14 1 13 15
M  V30 15 2 15 16
M  V30 16 1 7 9
M  V30 17 1 11 12
M  V30 18 1 14 15
M  V30 END BOND
M  V30 END CTAB
M  END
>  <Molecule Name>


>  <status>
-

>  <cas>
68475-42-3

>  <name>
ANAGRELIDE

>  <ID>
717

>  <Smiles>
O=C(CN1C2)NC1=Nc(cc1)c2c(Cl)c1Cl

$$$$

Actelion Java MolfileCreator 2.0

  0  0  0  0  0  0              0 V3000
M  V30 BEGIN CTAB
M  V30 COUNTS 31 36 0 0 0
M  V30 BEGIN ATOM
M  V30 1 O 8.29 2.6525 0.0 0
M  V30 2 C 7.3439 2.9766 0.0 0
M  V30 3 O 7.1516 3.9579 0.0 0 CHG=-1
M  V30 4 C 6.5902 2.3194 0.0 0
M  V30 5 C 5.6442 2.6435 0.0 0
M  V30 6 C 6.7826 1.338 0.0 0
M  V30 7 C 4.8905 1.9862 0.0 0
M  V30 8 C 6.0289 0.6808 0.0 0
M  V30 9 C 5.0829 1.0049 0.0 0
M  V30 10 C 3.9445 2.3103 0.0 0
M  V30 11 C 4.3292 0.3477 0.0 0
M  V30 12 C 3.1908 1.6531 0.0 0
M  V30 13 C 3.3832 0.6718 0.0 0
M  V30 14 C 2.6295 0.0145 0.0 0
M  V30 15 C 1.6834 0.3386 0.0 0
M  V30 16 C 2.8218 -0.9667 0.0 0
M  V30 17 C 0.9297 -0.3185 0.0 0
M  V30 18 C 2.0681 -1.6239 0.0 0
M  V30 19 C 1.1221 -1.2998 0.0 0
M  V30 20 C 0.0 0.0 0.0 0
M  V30 21 O 0.3684 -1.9571 0.0 0
M  V30 22 C 0.0172 1.0847 0.0 0
M  V30 23 C -0.7406 -0.2764 0.0 0
M  V30 24 C -0.5768 -0.749 0.0 0
M  V30 25 C 0.5607 -2.9384 0.0 0
M  V30 26 C -0.9986 1.4291 0.0 0 CFG=1
M  V30 27 C -1.9199 0.0655 0.0 0 CFG=2
M  V30 28 C -1.5588 -0.4611 0.0 0 CFG=1
M  V30 29 C -1.8677 1.1055 0.0 0
M  V30 30 C -1.461 0.7879 0.0 0
M  V30 31 C -2.4708 -0.7059 0.0 0
M  V30 END ATOM
M  V30 BEGIN BOND
M  V30 1 2 1 2
M  V30 2 1 2 3
M  V30 3 1 2 4
M  V30 4 2 4 5
M  V30 5 1 4 6
M  V30 6 1 5 7
M  V30 7 2 6 8
M  V30 8 1 7 9
M  V30 9 2 7 10
M  V30 10 2 9 11
M  V30 11 1 10 12
M  V30 12 1 11 13
M  V30 13 1 13 14
M  V30 14 2 14 15
M  V30 15 1 14 16
M  V30 16 1 15 17
M  V30 17 2 16 18
M  V30 18 2 17 19
M  V30 19 1 17 20
M  V30 20 1 19 21
M  V30 21 1 20 22
M  V30 22 1 20 23
M  V30 23 1 20 24
M  V30 24 1 21 25
M  V30 25 1 26 22 CFG=3
M  V30 26 1 27 23 CFG=1
M  V30 27 1 28 24 CFG=3
M  V30 28 1 26 29
M  V30 29 1 26 30
M  V30 30 1 27 31
M  V30 31 1 8 9
M  V30 32 2 12 13
M  V30 33 1 18 19
M  V30 34 1 27 29
M  V30 35 1 28 30
M  V30 36 1 28 31
M  V30 END BOND
M  V30 BEGIN COLLECTION
M  V30 MDLV30/STEABS ATOMS=(3 26 27 28)
M  V30 END COLLECTION
M  V30 END CTAB
M  END
>  <Molecule Name>


>  <status>
-

>  <cas>
106685-40-9

>  <name>
ADAPALENE

>  <ID>
718

>  <Smiles>
COc(cc1)c(C2(C[C@H](C3)C4)C[C@H]4C[C@H]3C2)cc1-c1ccc(cc(cc2)C([O-])=O)c2c1

$$$$

Actelion Java MolfileCreator 2.0

  0  0  0  0  0  0              0 V3000
M  V30 BEGIN CTAB
M  V30 COUNTS 20 23 0 0 0
M  V30 BEGIN ATOM
M  V30 1 N 3.0851 2.579 0.0 0
M  V30 2 C 3.3799 1.6234 0.0 0
M  V30 3 C 3.7653 3.3121 0.0 0
M  V30 4 N 2.598 1.0 0.0 0
M  V30 5 C 4.3548 1.4009 0.0 0
M  V30 6 C 4.7402 3.0895 0.0 0
M  V30 7 C 2.598 0.0 0.0 0 CFG=2
M  V30 8 C 1.732 1.4999 0.0 0
M  V30 9 C 5.035 2.134 0.0 0
M  V30 10 C 4.7887 0.5 0.0 0
M  V30 11 C 3.3799 -0.6234 0.0 0
M  V30 12 C 1.732 -0.5 0.0 0
M  V30 13 C 0.866 0.9999 0.0 0
M  V30 14 C 4.3548 -0.4009 0.0 0
M  V30 15 C 3.0851 -1.579 0.0 0
M  V30 16 N 0.866 0.0 0.0 0
M  V30 17 C 5.035 -1.134 0.0 0
M  V30 18 C 3.7653 -2.3121 0.0 0
M  V30 19 C 0.0 -0.5 0.0 0
M  V30 20 C 4.7402 -2.0895 0.0 0
M  V30 END ATOM
M  V30 BEGIN BOND
M  V30 1 2 1 2
M  V30 2 1 1 3
M  V30 3 1 2 4
M  V30 4 1 2 5
M  V30 5 2 3 6
M  V30 6 1 7 4 CFG=3
M  V30 7 1 4 8
M  V30 8 2 5 9
M  V30 9 1 5 10
M  V30 10 1 7 11
M  V30 11 1 7 12
M  V30 12 1 8 13
M  V30 13 1 10 14
M  V30 14 1 11 15
M  V30 15 1 12 16
M  V30 16 1 14 17
M  V30 17 2 15 18
M  V30 18 1 16 19
M  V30 19 2 17 20
M  V30 20 1 6 9
M  V30 21 2 11 14
M  V30 22 1 13 16
M  V30 23 1 18 20
M  V30 END BOND
M  V30 BEGIN COLLECTION
M  V30 MDLV30/STERAC1 ATOMS=(1 7)
M  V30 END COLLECTION
M  V30 END CTAB
M  END
>  <Molecule Name>


>  <status>
-

>  <cas>
61337-67-5

>  <name>
MIRTAZAPINE

>  <ID>
719

>  <Smiles>
CN(CC1)CC2N1c1ncccc1Cc1c2cccc1

$$$$
_c001
Actelion Java MolfileCreator 2.0

  0  0  0  0  0  0              0 V3000
M  V30 BEGIN CTAB
M  V30 COUNTS 28 29 0 0 0
M  V30 BEGIN ATOM
M  V30 1 O 1.732 -0.5 0.0 0
M  V30 2 N 2.4735 -0.2099 0.0 0 CHG=1
M  V30 3 O 3.6826 -0.3787 0.0 0 CHG=-1
M  V30 4 C 2.598 0.9999 0.0 0
M  V30 5 C 3.4641 1.4999 0.0 0
M  V30 6 C 1.732 1.4999 0.0 0
M  V30 7 C 3.4641 2.4999 0.0 0
M  V30 8 C 4.3301 1.0 0.0 0 CFG=2
M  V30 9 C 1.732 2.4999 0.0 0
M  V30 10 C 2.598 2.9999 0.0 0
M  V30 11 C 4.3301 0.0 0.0 0
M  V30 12 C 5.1961 1.5 0.0 0
M  V30 13 C 5.1961 -0.4999 0.0 0
M  V30 14 C 3.4399 -0.6731 0.0 0
M  V30 15 C 6.0621 1.0 0.0 0
M  V30 16 C 5.1961 2.5 0.0 0
M  V30 17 N 6.0621 0.0 0.0 0
M  V30 18 C 5.1961 -1.4999 0.0 0
M  V30 19 O 2.4105 0.125 0.0 0
M  V30 20 O 3.4641 -1.5 0.0 0
M  V30 21 C 6.9282 1.5 0.0 0
M  V30 22 O 6.0621 3.0 0.0 0
M  V30 23 O 4.3301 2.9999 0.0 0
M  V30 24 C 2.598 -1.9999 0.0 0
M  V30 25 C 4.3301 3.9999 0.0 0
M  V30 26 C 2.598 -2.9999 0.0 0
M  V30 27 C 3.4641 -3.5 0.0 0
M  V30 28 C 1.732 -3.5 0.0 0
M  V30 END ATOM
M  V30 BEGIN BOND
M  V30 1 2 1 2
M  V30 2 1 2 3
M  V30 3 1 2 4
M  V30 4 2 4 5
M  V30 5 1 4 6
M  V30 6 1 5 7
M  V30 7 1 8 5 CFG=1
M  V30 8 2 6 9
M  V30 9 2 7 10
M  V30 10 1 8 11
M  V30 11 1 8 12
M  V30 12 2 11 13
M  V30 13 1 11 14
M  V30 14 2 12 15
M  V30 15 1 12 16
M  V30 16 1 13 17
M  V30 17 1 13 18
M  V30 18 2 14 19
M  V30 19 1 14 20
M  V30 20 1 15 21
M  V30 21 2 16 22
M  V30 22 1 16 23
M  V30 23 1 20 24
M  V30 24 1 23 25
M  V30 25 1 24 26
M  V30 26 1 26 27
M  V30 27 1 26 28
M  V30 28 1 9 10
M  V30 29 1 15 17
M  V30 END BOND
M  V30 BEGIN COLLECTION
M  V30 MDLV30/STERAC1 ATOMS=(1 8)
M  V30 END COLLECTION
M  V30 END CTAB
M  END
>  <Molecule Name>
_c001

>  <status>
-

>  <cas>
63675-72-9

>  <name>
NISOLDIPINE

>  <ID>
720

>  <Smiles>
CC(C)COC(C(C1c(cccc2)c2[N+]([O-])=O)=C(C)NC(C)=C1C(OC)=O)=O

$$$$

Actelion Java MolfileCreator 2.0

  0  0  0  0  0  0              0 V3000
M  V30 BEGIN CTAB
M  V30 COUNTS 9 8 0 0 0
M  V30 BEGIN ATOM
M  V30 1 N 4.3301 0.0 0.0 0 CHG=1
M  V30 2 C 3.4641 -0.5 0.0 0
M  V30 3 N 2.598 0.0 0.0 0
M  V30 4 N 3.4641 -1.5 0.0 0
M  V30 5 C 1.732 -0.5 0.0 0
M  V30 6 N 1.732 -1.5 0.0 0
M  V30 7 N 0.866 0.0 0.0 0
M  V30 8 C 0.866 1.0 0.0 0
M  V30 9 C 0.0 -0.5 0.0 0
M  V30 END ATOM
M  V30 BEGIN BOND
M  V30 1 2 1 2
M  V30 2 1 2 3
M  V30 3 1 2 4
M  V30 4 1 3 5
M  V30 5 2 5 6
M  V30 6 1 5 7
M  V30 7 1 7 8
M  V30 8 1 7 9
M  V30 END BOND
M  V30 END CTAB
M  END
>  <Molecule Name>


>  <status>
-

>  <cas>
657-24-9

>  <name>
METFORMIN

>  <ID>
721

>  <Smiles>
CN(C)C(NC(N)=[NH2+])=N

$$$$

Actelion Java MolfileCreator 2.0

  0  0  0  0  0  0              0 V3000
M  V30 BEGIN CTAB
M  V30 COUNTS 23 24 0 0 0
M  V30 BEGIN ATOM
M  V30 1 O 6.9282 -0.5 0.0 0
M  V30 2 C 6.0621 0.0 0.0 0
M  V30 3 O 5.1961 -0.5 0.0 0
M  V30 4 C 6.0621 0.9999 0.0 0
M  V30 5 C 4.3301 0.0 0.0 0
M  V30 6 C 3.4641 -0.5 0.0 0
M  V30 7 C 2.598 0.0 0.0 0
M  V30 8 C 3.4641 -1.5 0.0 0
M  V30 9 O 1.732 -0.5 0.0 0
M  V30 10 C 2.598 -2.0 0.0 0
M  V30 11 C 0.866 0.0 0.0 0
M  V30 12 N 2.598 -3.0 0.0 0
M  V30 13 O 0.866 1.0 0.0 0
M  V30 14 C 0.0 -0.5 0.0 0
M  V30 15 C 1.789 -3.5877 0.0 0
M  V30 16 C 3.407 -3.5877 0.0 0
M  V30 17 N 0.8109 -3.3798 0.0 0
M  V30 18 C 2.098 -4.5388 0.0 0
M  V30 19 N 3.098 -4.5388 0.0 0
M  V30 20 C 0.1417 -4.123 0.0 0
M  V30 21 C 1.4289 -5.2819 0.0 0
M  V30 22 N 0.4507 -5.074 0.0 0
M  V30 23 N -0.8363 -3.9151 0.0 0
M  V30 END ATOM
M  V30 BEGIN BOND
M  V30 1 2 1 2
M  V30 2 1 2 3
M  V30 3 1 2 4
M  V30 4 1 3 5
M  V30 5 1 5 6
M  V30 6 1 6 7
M  V30 7 1 6 8
M  V30 8 1 7 9
M  V30 9 1 8 10
M  V30 10 1 9 11
M  V30 11 1 10 12
M  V30 12 2 11 13
M  V30 13 1 11 14
M  V30 14 1 12 15
M  V30 15 1 12 16
M  V30 16 2 15 17
M  V30 17 1 15 18
M  V30 18 2 16 19
M  V30 19 1 17 20
M  V30 20 2 18 21
M  V30 21 2 20 22
M  V30 22 1 20 23
M  V30 23 1 18 19
M  V30 24 1 21 22
M  V30 END BOND
M  V30 END CTAB
M  END
>  <Molecule Name>


>  <status>
-

>  <cas>
104227-87-4

>  <name>
FAMCICLOVIR

>  <ID>
722

>  <Smiles>
CC(OCC(CCn1c2nc(N)ncc2nc1)COC(C)=O)=O

$$$$

Actelion Java MolfileCreator 2.0

  0  0  0  0  0  0              0 V3000
M  V30 BEGIN CTAB
M  V30 COUNTS 30 33 0 0 0
M  V30 BEGIN ATOM
M  V30 1 Cl 6.0412 -0.7318 0.0 0
M  V30 2 C 5.0467 -0.8364 0.0 0
M  V30 3 N 4.3776 -0.0932 0.0 0
M  V30 4 C 4.5467 -1.7024 0.0 0
M  V30 5 C 3.4641 -0.5 0.0 0
M  V30 6 N 3.5686 -1.4945 0.0 0
M  V30 7 C 4.9535 -2.6159 0.0 0
M  V30 8 C 2.598 0.0 0.0 0
M  V30 9 C 2.8254 -2.1636 0.0 0
M  V30 10 O 5.948 -2.7205 0.0 0
M  V30 11 C 1.732 -0.5 0.0 0
M  V30 12 C 3.0333 -3.1418 0.0 0
M  V30 13 C 0.866 0.0 0.0 0
M  V30 14 C 2.2902 -3.8109 0.0 0
M  V30 15 C 3.9844 -3.4508 0.0 0
M  V30 16 C 0.0 -0.5 0.0 0
M  V30 17 C 2.4981 -4.789 0.0 0
M  V30 18 C 4.1923 -4.4289 0.0 0
M  V30 19 C 3.4492 -5.098 0.0 0
M  V30 20 C 3.6571 -6.0762 0.0 0
M  V30 21 C 2.9139 -6.7453 0.0 0
M  V30 22 C 4.6081 -6.3852 0.0 0
M  V30 23 C 1.9629 -6.4363 0.0 0
M  V30 24 C 3.1218 -7.7235 0.0 0
M  V30 25 C 4.8161 -7.3634 0.0 0
M  V30 26 N 1.6539 -5.4853 0.0 0
M  V30 27 N 1.1539 -7.0241 0.0 0
M  V30 28 C 4.0729 -8.0325 0.0 0
M  V30 29 N 0.6539 -5.4853 0.0 0
M  V30 30 N 0.3448 -6.4363 0.0 0
M  V30 END ATOM
M  V30 BEGIN BOND
M  V30 1 1 1 2
M  V30 2 1 2 3
M  V30 3 2 2 4
M  V30 4 2 3 5
M  V30 5 1 4 6
M  V30 6 1 4 7
M  V30 7 1 5 8
M  V30 8 1 6 9
M  V30 9 1 7 10
M  V30 10 1 8 11
M  V30 11 1 9 12
M  V30 12 1 11 13
M  V30 13 2 12 14
M  V30 14 1 12 15
M  V30 15 1 13 16
M  V30 16 1 14 17
M  V30 17 2 15 18
M  V30 18 2 17 19
M  V30 19 1 19 20
M  V30 20 2 20 21
M  V30 21 1 20 22
M  V30 22 1 21 23
M  V30 23 1 21 24
M  V30 24 2 22 25
M  V30 25 1 23 26
M  V30 26 2 23 27
M  V30 27 2 24 28
M  V30 28 2 26 29
M  V30 29 1 27 30
M  V30 30 1 5 6
M  V30 31 1 18 19
M  V30 32 1 25 28
M  V30 33 1 29 30
M  V30 END BOND
M  V30 END CTAB
M  END
>  <Molecule Name>


>  <status>
-

>  <cas>
114798-26-4

>  <name>
LOSARTAN

>  <ID>
723

>  <Smiles>
CCCCc1nc(Cl)c(CO)n1Cc(cc1)ccc1-c(cccc1)c1-c1n[nH]nn1

$$$$

Actelion Java MolfileCreator 2.0

  0  0  0  0  0  0              0 V3000
M  V30 BEGIN CTAB
M  V30 COUNTS 57 65 0 0 0
M  V30 BEGIN ATOM
M  V30 1 O 9.6343 7.8806 0.0 0
M  V30 2 C 9.4177 6.3869 0.0 0
M  V30 3 O 7.962 5.5607 0.0 0
M  V30 4 C 10.603 5.4525 0.0 0 CFG=2
M  V30 5 C 7.7994 4.334 0.0 0
M  V30 6 C 9.1676 4.9861 0.0 0
M  V30 7 C 11.5832 4.3049 0.0 0
M  V30 8 C 10.7214 6.9571 0.0 0
M  V30 9 C 8.0092 6.1632 0.0 0
M  V30 10 C 8.8538 3.5099 0.0 0
M  V30 11 N 11.0056 2.9105 0.0 0
M  V30 12 C 13.0878 4.1865 0.0 0
M  V30 13 C 11.9737 7.9503 0.0 0 CFG=2
M  V30 14 O 8.3598 7.4723 0.0 0
M  V30 15 C 6.6106 5.5296 0.0 0
M  V30 16 C 7.4184 3.0435 0.0 0
M  V30 17 C 12.1533 1.9303 0.0 0
M  V30 18 C 13.4401 2.7189 0.0 0
M  V30 19 C 14.2355 5.1666 0.0 0
M  V30 20 C 12.6589 9.295 0.0 0
M  V30 21 C 12.7957 6.6845 0.0 0
M  V30 22 C 7.2382 8.4822 0.0 0
M  V30 23 C 6.2968 4.0534 0.0 0
M  V30 24 C 6.8045 1.6647 0.0 0 CFG=2
M  V30 25 C 12.1928 0.4216 0.0 0
M  V30 26 C 14.7665 1.9987 0.0 0
M  V30 27 N 14.3029 6.7635 0.0 0
M  V30 28 C 14.1661 9.374 0.0 0
M  V30 29 N 4.9897 3.2987 0.0 0
M  V30 30 C 5.3035 1.8224 0.0 0 CFG=2
M  V30 31 C 6.1907 0.2859 0.0 0 CFG=2
M  V30 32 C 8.3055 1.5069 0.0 0
M  V30 33 C 13.5192 -0.2985 0.0 0
M  V30 34 C 14.806 0.49 0.0 0
M  V30 35 C 14.9881 8.1083 0.0 0
M  V30 36 C 14.8512 10.7188 0.0 0
M  V30 37 C 3.6664 3.9099 0.0 0
M  V30 38 C 3.9211 1.5092 0.0 0 CFG=2
M  V30 39 N 7.3123 -0.7239 0.0 0
M  V30 40 C 5.2282 -0.7546 0.0 0 CFG=1
M  V30 41 C 8.6193 0.0306 0.0 0
M  V30 42 C 14.0292 11.9846 0.0 0
M  V30 43 O 4.2254 2.9081 0.0 0
M  V30 44 C 2.7419 2.4512 0.0 0
M  V30 45 C 3.9211 0.0 0.0 0 CFG=2
M  V30 46 C 7.5939 -2.1254 0.0 0
M  V30 47 C 4.9806 -2.1901 0.0 0
M  V30 48 C 3.8615 -1.395 0.0 0
M  V30 49 O 1.3433 1.9911 0.0 0
M  V30 50 O 2.9403 3.9447 0.0 0
M  V30 51 O 2.6141 -0.7546 0.0 0
M  V30 52 C 6.3059 -2.9122 0.0 0
M  V30 53 C 3.7328 -2.8987 0.0 0
M  V30 54 C 1.7888 4.8853 0.0 0
M  V30 55 C 1.307 0.0 0.0 0
M  V30 56 O 1.2934 1.3288 0.0 0
M  V30 57 C 0.0 -0.7546 0.0 0
M  V30 END ATOM
M  V30 BEGIN BOND
M  V30 1 2 1 2
M  V30 2 1 2 3
M  V30 3 1 4 2 CFG=1
M  V30 4 1 3 5
M  V30 5 1 4 6
M  V30 6 1 4 7
M  V30 7 1 4 8
M  V30 8 2 6 9
M  V30 9 1 6 10
M  V30 10 1 7 11
M  V30 11 2 7 12
M  V30 12 1 13 8 CFG=3
M  V30 13 1 9 14
M  V30 14 1 9 15
M  V30 15 2 10 16
M  V30 16 1 11 17
M  V30 17 1 12 18
M  V30 18 1 12 19
M  V30 19 1 13 20
M  V30 20 1 13 21
M  V30 21 1 14 22
M  V30 22 2 15 23
M  V30 23 1 24 16 CFG=1
M  V30 24 1 17 25
M  V30 25 1 18 26
M  V30 26 1 19 27
M  V30 27 2 20 28
M  V30 28 1 23 29
M  V30 29 1 30 24
M  V30 30 1 31 24
M  V30 31 1 24 32
M  V30 32 2 25 33
M  V30 33 2 26 34
M  V30 34 1 27 35
M  V30 35 1 28 36
M  V30 36 1 29 37
M  V30 37 1 38 30
M  V30 38 1 31 39 CFG=3
M  V30 39 1 40 31
M  V30 40 1 32 41
M  V30 41 1 36 42
M  V30 42 1 38 43 CFG=3
M  V30 43 1 38 44
M  V30 44 1 45 38
M  V30 45 1 39 46
M  V30 46 1 40 47
M  V30 47 1 40 48 CFG=1
M  V30 48 2 44 49
M  V30 49 1 44 50
M  V30 50 1 45 51 CFG=3
M  V30 51 1 46 52
M  V30 52 1 48 53
M  V30 53 1 50 54
M  V30 54 1 51 55
M  V30 55 2 55 56
M  V30 56 1 55 57
M  V30 57 1 16 23
M  V30 58 2 17 18
M  V30 59 1 21 27
M  V30 60 1 28 35
M  V30 61 1 30 29 CFG=1
M  V30 62 1 33 34
M  V30 63 1 39 41
M  V30 64 1 40 45
M  V30 65 2 47 52
M  V30 END BOND
M  V30 BEGIN COLLECTION
M  V30 MDLV30/STERAC1 ATOMS=(8 4 13 24 30 31 38 40 45)
M  V30 END COLLECTION
M  V30 END CTAB
M  END
>  <Molecule Name>


>  <status>
-

>  <cas>
71486-22-1

>  <name>
VINORELBINE

>  <ID>
724

>  <Smiles>
CC[C@]1([C@@H]([C@]([C@H]2N(C)c3c4)(C(OC)=O)O)OC(C)=O)C=CCN(CC5)[C@H]1[C@]25c3cc([C@@](C[C@@H](C1)C=C(CC)CN1C1)(C(OC)=O)c2c1c(cccc1)c1[nH]2)c4OC

$$$$

Actelion Java MolfileCreator 2.0

  0  0  0  0  0  0              0 V3000
M  V30 BEGIN CTAB
M  V30 COUNTS 16 18 0 0 0
M  V30 BEGIN ATOM
M  V30 1 Cl 2.598 1.0 0.0 0
M  V30 2 C 2.598 0.0 0.0 0
M  V30 3 C 1.732 -0.5 0.0 0
M  V30 4 C 3.4641 -0.4999 0.0 0
M  V30 5 N 0.866 0.0 0.0 0
M  V30 6 C 1.732 -1.5 0.0 0
M  V30 7 C 3.4641 -1.4999 0.0 0
M  V30 8 C 0.0 -0.5 0.0 0
M  V30 9 N 0.9889 -2.1691 0.0 0
M  V30 10 C 2.598 -1.9999 0.0 0
M  V30 11 N -0.9135 -0.0932 0.0 0
M  V30 12 N -0.1045 -1.4945 0.0 0
M  V30 13 S 1.3956 -3.0826 0.0 0
M  V30 14 N 2.3901 -2.9781 0.0 0
M  V30 15 C -1.5826 -0.8364 0.0 0
M  V30 16 C -1.0826 -1.7024 0.0 0
M  V30 END ATOM
M  V30 BEGIN BOND
M  V30 1 1 1 2
M  V30 2 2 2 3
M  V30 3 1 2 4
M  V30 4 1 3 5
M  V30 5 1 3 6
M  V30 6 2 4 7
M  V30 7 1 5 8
M  V30 8 2 6 9
M  V30 9 1 6 10
M  V30 10 2 8 11
M  V30 11 1 8 12
M  V30 12 1 9 13
M  V30 13 2 10 14
M  V30 14 1 11 15
M  V30 15 1 12 16
M  V30 16 1 7 10
M  V30 17 1 13 14
M  V30 18 1 15 16
M  V30 END BOND
M  V30 END CTAB
M  END
>  <Molecule Name>


>  <status>
-

>  <cas>
51322-75-9

>  <name>
TIZANIDINE

>  <ID>
725

>  <Smiles>
Clc(ccc1nsnc11)c1NC1=NCCN1

$$$$

Actelion Java MolfileCreator 2.0

  0  0  0  0  0  0              0 V3000
M  V30 BEGIN CTAB
M  V30 COUNTS 25 27 0 0 0
M  V30 BEGIN ATOM
M  V30 1 S 0.866 0.9999 0.0 0 CFG=2
M  V30 2 O 1.732 1.4999 0.0 0
M  V30 3 C 0.0 1.5 0.0 0
M  V30 4 C 0.866 0.0 0.0 0
M  V30 5 N -0.9135 1.0932 0.0 0
M  V30 6 N -0.1045 2.4945 0.0 0
M  V30 7 C 0.0 -0.5 0.0 0
M  V30 8 C -1.5826 1.8364 0.0 0
M  V30 9 C -1.0826 2.7024 0.0 0
M  V30 10 N -0.866 0.0 0.0 0
M  V30 11 C 0.0 -1.4999 0.0 0
M  V30 12 C -2.5826 1.8364 0.0 0
M  V30 13 C -1.5826 3.5684 0.0 0
M  V30 14 C -1.732 -0.4999 0.0 0
M  V30 15 C -0.866 -1.9999 0.0 0
M  V30 16 C 0.866 -2.0 0.0 0
M  V30 17 C -3.0826 2.7024 0.0 0
M  V30 18 C -2.5826 3.5684 0.0 0
M  V30 19 C -1.732 -1.4999 0.0 0
M  V30 20 O -0.866 -2.9999 0.0 0
M  V30 21 C -1.732 -3.4999 0.0 0
M  V30 22 C -1.732 -4.4999 0.0 0
M  V30 23 F -0.732 -4.4999 0.0 0
M  V30 24 F -1.732 -5.4999 0.0 0
M  V30 25 F -2.732 -4.4999 0.0 0
M  V30 END ATOM
M  V30 BEGIN BOND
M  V30 1 2 1 2
M  V30 2 1 1 3
M  V30 3 1 1 4 CFG=1
M  V30 4 2 3 5
M  V30 5 1 3 6
M  V30 6 1 4 7
M  V30 7 1 5 8
M  V30 8 1 6 9
M  V30 9 2 7 10
M  V30 10 1 7 11
M  V30 11 1 8 12
M  V30 12 1 9 13
M  V30 13 1 10 14
M  V30 14 2 11 15
M  V30 15 1 11 16
M  V30 16 2 12 17
M  V30 17 2 13 18
M  V30 18 2 14 19
M  V30 19 1 15 20
M  V30 20 1 20 21
M  V30 21 1 21 22
M  V30 22 1 22 23
M  V30 23 1 22 24
M  V30 24 1 22 25
M  V30 25 2 8 9
M  V30 26 1 15 19
M  V30 27 1 17 18
M  V30 END BOND
M  V30 BEGIN COLLECTION
M  V30 MDLV30/STERAC1 ATOMS=(1 1)
M  V30 END COLLECTION
M  V30 END CTAB
M  END
>  <Molecule Name>


>  <status>
-

>  <cas>
103577-45-3

>  <name>
LANSOPRAZOLE

>  <ID>
726

>  <Smiles>
Cc(c(CS(c1nc(cccc2)c2[nH]1)=O)ncc1)c1OCC(F)(F)F

$$$$

Actelion Java MolfileCreator 2.0

  0  0  0  0  0  0              0 V3000
M  V30 BEGIN CTAB
M  V30 COUNTS 19 20 0 0 0
M  V30 BEGIN ATOM
M  V30 1 S 6.4952 1.5 0.0 0
M  V30 2 O 7.9951 1.4999 0.0 0
M  V30 3 O 7.2451 2.799 0.0 0
M  V30 4 C 5.1961 2.25 0.0 0
M  V30 5 C 6.4952 0.0 0.0 0 CFG=2
M  V30 6 S 4.8842 3.7172 0.0 0
M  V30 7 C 3.8971 1.5 0.0 0
M  V30 8 C 5.1961 -0.75 0.0 0
M  V30 9 C 7.7942 -0.75 0.0 0
M  V30 10 C 3.3925 3.874 0.0 0
M  V30 11 C 2.7824 2.5037 0.0 0
M  V30 12 C 3.8971 0.0 0.0 0 CFG=2
M  V30 13 S 2.6425 5.173 0.0 0
M  V30 14 N 2.598 -0.75 0.0 0
M  V30 15 O 3.9415 5.923 0.0 0
M  V30 16 O 1.3434 4.423 0.0 0
M  V30 17 N 1.8925 6.4721 0.0 0
M  V30 18 C 1.299 0.0 0.0 0
M  V30 19 C 0.0 -0.75 0.0 0
M  V30 END ATOM
M  V30 BEGIN BOND
M  V30 1 2 1 2
M  V30 2 2 1 3
M  V30 3 1 1 4
M  V30 4 1 5 1
M  V30 5 1 4 6
M  V30 6 2 4 7
M  V30 7 1 5 8
M  V30 8 1 5 9 CFG=1
M  V30 9 1 6 10
M  V30 10 1 7 11
M  V30 11 1 12 7
M  V30 12 1 10 13
M  V30 13 1 12 14 CFG=3
M  V30 14 2 13 15
M  V30 15 2 13 16
M  V30 16 1 13 17
M  V30 17 1 14 18
M  V30 18 1 18 19
M  V30 19 1 8 12
M  V30 20 2 10 11
M  V30 END BOND
M  V30 BEGIN COLLECTION
M  V30 MDLV30/STERAC1 ATOMS=(2 5 12)
M  V30 END COLLECTION
M  V30 END CTAB
M  END
>  <Molecule Name>


>  <status>
-

>  <cas>
120279-96-1

>  <name>
DORZOLAMIDE

>  <ID>
727

>  <Smiles>
CCN[C@@H](C[C@@H]1C)c(cc(s2)S(N)(=O)=O)c2S1(=O)=O

$$$$

Actelion Java MolfileCreator 2.0

  0  0  0  0  0  0              0 V3000
M  V30 BEGIN CTAB
M  V30 COUNTS 16 17 0 0 0
M  V30 BEGIN ATOM
M  V30 1 O 6.1923 1.486 0.0 0
M  V30 2 C 7.0739 0.2724 0.0 0
M  V30 3 N 6.4638 -1.0978 0.0 0
M  V30 4 N 8.5657 0.4292 0.0 0
M  V30 5 C 7.3455 -2.3113 0.0 0
M  V30 6 C 4.972 -1.2546 0.0 0 CFG=1
M  V30 7 C 9.4474 -0.7842 0.0 0
M  V30 8 C 8.8373 -2.1545 0.0 0
M  V30 9 O 3.9683 -0.1398 0.0 0
M  V30 10 C 4.222 -2.5536 0.0 0
M  V30 11 O 10.9392 -0.6274 0.0 0
M  V30 12 C 9.719 -3.368 0.0 0
M  V30 13 C 2.598 -0.75 0.0 0 CFG=2
M  V30 14 C 2.7548 -2.2417 0.0 0
M  V30 15 C 1.299 0.0 0.0 0
M  V30 16 O 0.0 -0.75 0.0 0
M  V30 END ATOM
M  V30 BEGIN BOND
M  V30 1 2 1 2
M  V30 2 1 2 3
M  V30 3 1 2 4
M  V30 4 1 3 5
M  V30 5 1 6 3 CFG=3
M  V30 6 1 4 7
M  V30 7 2 5 8
M  V30 8 1 6 9
M  V30 9 1 6 10
M  V30 10 2 7 11
M  V30 11 1 8 12
M  V30 12 1 13 9
M  V30 13 2 10 14
M  V30 14 1 13 15 CFG=3
M  V30 15 1 15 16
M  V30 16 1 7 8
M  V30 17 1 13 14
M  V30 END BOND
M  V30 BEGIN COLLECTION
M  V30 MDLV30/STERAC1 ATOMS=(2 6 13)
M  V30 END COLLECTION
M  V30 END CTAB
M  END
>  <Molecule Name>


>  <status>
-

>  <cas>
3056-17-5

>  <name>
STAVUDINE

>  <ID>
728

>  <Smiles>
CC(C(N1)=O)=CN([C@H]2O[C@@H](CO)C=C2)C1=O

$$$$

Actelion Java MolfileCreator 2.0

  0  0  0  0  0  0              0 V3000
M  V30 BEGIN CTAB
M  V30 COUNTS 20 23 0 0 0
M  V30 BEGIN ATOM
M  V30 1 N 3.0851 2.579 0.0 0
M  V30 2 C 3.3799 1.6234 0.0 0
M  V30 3 C 3.7653 3.3121 0.0 0
M  V30 4 N 2.598 1.0 0.0 0
M  V30 5 C 4.3548 1.4009 0.0 0
M  V30 6 C 4.7402 3.0895 0.0 0
M  V30 7 C 2.598 0.0 0.0 0 CFG=2
M  V30 8 C 1.732 1.4999 0.0 0
M  V30 9 C 5.035 2.134 0.0 0
M  V30 10 C 4.7887 0.5 0.0 0
M  V30 11 C 3.3799 -0.6234 0.0 0
M  V30 12 C 1.732 -0.5 0.0 0
M  V30 13 C 0.866 0.9999 0.0 0
M  V30 14 C 4.3548 -0.4009 0.0 0
M  V30 15 C 3.0851 -1.579 0.0 0
M  V30 16 N 0.866 0.0 0.0 0
M  V30 17 C 5.035 -1.134 0.0 0
M  V30 18 C 3.7653 -2.3121 0.0 0
M  V30 19 C 0.0 -0.5 0.0 0
M  V30 20 C 4.7402 -2.0895 0.0 0
M  V30 END ATOM
M  V30 BEGIN BOND
M  V30 1 2 1 2
M  V30 2 1 1 3
M  V30 3 1 2 4
M  V30 4 1 2 5
M  V30 5 2 3 6
M  V30 6 1 7 4 CFG=3
M  V30 7 1 4 8
M  V30 8 2 5 9
M  V30 9 1 5 10
M  V30 10 1 7 11
M  V30 11 1 7 12
M  V30 12 1 8 13
M  V30 13 1 10 14
M  V30 14 1 11 15
M  V30 15 1 12 16
M  V30 16 1 14 17
M  V30 17 2 15 18
M  V30 18 1 16 19
M  V30 19 2 17 20
M  V30 20 1 6 9
M  V30 21 2 11 14
M  V30 22 1 13 16
M  V30 23 1 18 20
M  V30 END BOND
M  V30 BEGIN COLLECTION
M  V30 MDLV30/STERAC1 ATOMS=(1 7)
M  V30 END COLLECTION
M  V30 END CTAB
M  END
>  <Molecule Name>


>  <status>
-

>  <cas>
61337-67-5

>  <name>
MIRTAZAPINE

>  <ID>
729

>  <Smiles>
CN(CC1)CC2N1c1ncccc1Cc1c2cccc1

$$$$

Actelion Java MolfileCreator 2.0

  0  0  0  0  0  0              0 V3000
M  V30 BEGIN CTAB
M  V30 COUNTS 23 24 0 0 0
M  V30 BEGIN ATOM
M  V30 1 O 7.7942 -3.0 0.0 0
M  V30 2 C 7.7942 -2.0 0.0 0
M  V30 3 C 8.6602 -1.5 0.0 0
M  V30 4 C 6.9282 -1.4999 0.0 0
M  V30 5 O 9.5262 -2.0 0.0 0
M  V30 6 C 8.6602 -0.5 0.0 0
M  V30 7 C 6.9282 -0.5 0.0 0
M  V30 8 C 7.7942 0.0 0.0 0
M  V30 9 C 6.0621 0.0 0.0 0 CFG=1
M  V30 10 O 6.0621 0.9999 0.0 0
M  V30 11 C 5.1961 -0.5 0.0 0
M  V30 12 N 4.3301 0.0 0.0 0
M  V30 13 C 3.4641 -0.5 0.0 0
M  V30 14 C 2.598 0.0 0.0 0
M  V30 15 C 1.732 -0.5 0.0 0
M  V30 16 C 0.866 0.0 0.0 0
M  V30 17 C 0.0 -0.5 0.0 0
M  V30 18 C -0.866 0.0 0.0 0
M  V30 19 C 0.0 -1.4999 0.0 0
M  V30 20 C -1.732 -0.4999 0.0 0
M  V30 21 C -0.866 -1.9999 0.0 0
M  V30 22 C -1.732 -1.4999 0.0 0
M  V30 23 O -2.598 -1.9999 0.0 0
M  V30 END ATOM
M  V30 BEGIN BOND
M  V30 1 1 1 2
M  V30 2 2 2 3
M  V30 3 1 2 4
M  V30 4 1 3 5
M  V30 5 1 3 6
M  V30 6 2 4 7
M  V30 7 2 6 8
M  V30 8 1 9 7
M  V30 9 1 9 10 CFG=3
M  V30 10 1 9 11
M  V30 11 1 11 12
M  V30 12 1 12 13
M  V30 13 1 13 14
M  V30 14 1 14 15
M  V30 15 1 15 16
M  V30 16 1 16 17
M  V30 17 2 17 18
M  V30 18 1 17 19
M  V30 19 1 18 20
M  V30 20 2 19 21
M  V30 21 2 20 22
M  V30 22 1 22 23
M  V30 23 1 7 8
M  V30 24 1 21 22
M  V30 END BOND
M  V30 BEGIN COLLECTION
M  V30 MDLV30/STERAC1 ATOMS=(1 9)
M  V30 END COLLECTION
M  V30 END CTAB
M  END
>  <Molecule Name>


>  <status>
DISCONTINUED

>  <cas>
128470-16-6

>  <name>
ARBUTAMINE

>  <ID>
730

>  <Smiles>
OC(CNCCCCc(cc1)ccc1O)c(cc1)cc(O)c1O

$$$$

Actelion Java MolfileCreator 2.0

  0  0  0  0  0  0              0 V3000
M  V30 BEGIN CTAB
M  V30 COUNTS 13 12 0 0 0
M  V30 BEGIN ATOM
M  V30 1 O 8.6602 -0.5 0.0 0
M  V30 2 C 7.7942 0.0 0.0 0
M  V30 3 O 7.7942 0.9999 0.0 0 CHG=-1
M  V30 4 C 6.9282 -0.5 0.0 0
M  V30 5 C 6.0621 0.0 0.0 0
M  V30 6 C 5.1961 -0.5 0.0 0
M  V30 7 C 4.3301 0.0 0.0 0
M  V30 8 C 3.4641 -0.5 0.0 0
M  V30 9 C 2.598 0.0 0.0 0
M  V30 10 C 1.732 -0.5 0.0 0
M  V30 11 C 0.866 0.0 0.0 0
M  V30 12 O 0.866 1.0 0.0 0
M  V30 13 O 0.0 -0.5 0.0 0 CHG=-1
M  V30 END ATOM
M  V30 BEGIN BOND
M  V30 1 2 1 2
M  V30 2 1 2 3
M  V30 3 1 2 4
M  V30 4 1 4 5
M  V30 5 1 5 6
M  V30 6 1 6 7
M  V30 7 1 7 8
M  V30 8 1 8 9
M  V30 9 1 9 10
M  V30 10 1 10 11
M  V30 11 2 11 12
M  V30 12 1 11 13
M  V30 END BOND
M  V30 END CTAB
M  END
>  <Molecule Name>


>  <status>
-

>  <cas>
123-99-9

>  <name>
AZELAIC ACID

>  <ID>
731

>  <Smiles>
[O-]C(CCCCCCCC([O-])=O)=O

$$$$

Actelion Java MolfileCreator 2.0

  0  0  0  0  0  0              0 V3000
M  V30 BEGIN CTAB
M  V30 COUNTS 25 26 0 0 0
M  V30 BEGIN ATOM
M  V30 1 O 8.8075 -8.0455 0.0 0
M  V30 2 C 8.0644 -7.3763 0.0 0
M  V30 3 O 7.1133 -7.6854 0.0 0 CHG=-1
M  V30 4 C 8.2723 -6.3982 0.0 0
M  V30 5 C 7.5291 -5.7291 0.0 0
M  V30 6 C 7.737 -4.7509 0.0 0
M  V30 7 C 6.9939 -4.0818 0.0 0
M  V30 8 C 7.2018 -3.1036 0.0 0
M  V30 9 O 8.1154 -2.6969 0.0 0
M  V30 10 C 6.5327 -2.3605 0.0 0
M  V30 11 C 8.0108 -1.7024 0.0 0 CFG=1
M  V30 12 C 7.0327 -1.4945 0.0 0 CFG=2
M  V30 13 C 8.5108 -0.8364 0.0 0
M  V30 14 C 6.9282 -0.5 0.0 0 CFG=1
M  V30 15 C 7.8417 -0.0932 0.0 0 CFG=1
M  V30 16 C 6.0621 0.0 0.0 0
M  V30 17 O 8.0496 0.8848 0.0 0
M  V30 18 C 5.1961 -0.5 0.0 0
M  V30 19 C 4.3301 0.0 0.0 0 CFG=2
M  V30 20 O 4.3301 1.0 0.0 0
M  V30 21 C 3.4641 -0.5 0.0 0
M  V30 22 C 2.598 0.0 0.0 0
M  V30 23 C 1.732 -0.5 0.0 0
M  V30 24 C 0.866 0.0 0.0 0
M  V30 25 C 0.0 -0.5 0.0 0
M  V30 END ATOM
M  V30 BEGIN BOND
M  V30 1 2 1 2
M  V30 2 1 2 3
M  V30 3 1 2 4
M  V30 4 1 4 5
M  V30 5 1 5 6
M  V30 6 1 6 7
M  V30 7 2 7 8
M  V30 8 1 8 9
M  V30 9 1 8 10
M  V30 10 1 11 9 CFG=1
M  V30 11 1 12 10 CFG=1
M  V30 12 1 11 13
M  V30 13 1 14 12
M  V30 14 1 15 13
M  V30 15 1 14 16 CFG=3
M  V30 16 1 15 17 CFG=1
M  V30 17 2 16 18
M  V30 18 1 19 18
M  V30 19 1 19 20 CFG=1
M  V30 20 1 19 21
M  V30 21 1 21 22
M  V30 22 1 22 23
M  V30 23 1 23 24
M  V30 24 1 24 25
M  V30 25 1 11 12
M  V30 26 1 14 15
M  V30 END BOND
M  V30 BEGIN COLLECTION
M  V30 MDLV30/STERAC1 ATOMS=(5 11 12 14 15 19)
M  V30 END COLLECTION
M  V30 END CTAB
M  END
>  <Molecule Name>


>  <status>
-

>  <cas>
35121-78-9

>  <name>
EPOPROSTENOL

>  <ID>
732

>  <Smiles>
CCCCC[C@H](/C=C/[C@@H]([C@H](C1)[C@@H](C2)O/C1=C\CCCC([O-])=O)[C@H]2O)O

$$$$

Actelion Java MolfileCreator 2.0

  0  0  0  0  0  0              0 V3000
M  V30 BEGIN CTAB
M  V30 COUNTS 58 63 0 0 0
M  V30 BEGIN ATOM
M  V30 1 O 9.6581 -3.9594 0.0 0
M  V30 2 C 9.3993 -2.9935 0.0 0
M  V30 3 C 10.1927 -2.3847 0.0 0 CFG=2
M  V30 4 C 8.4079 -2.863 0.0 0 CFG=1
M  V30 5 C 10.3232 -1.3933 0.0 0 CFG=2
M  V30 6 C 10.986 -2.9935 0.0 0 CFG=2
M  V30 7 C 10.1927 -3.3847 0.0 0
M  V30 8 O 7.8922 -3.7198 0.0 0
M  V30 9 C 7.7942 -2.0 0.0 0
M  V30 10 C 11.2471 -1.0106 0.0 0 CFG=2
M  V30 11 C 9.7144 -0.5999 0.0 0 CFG=1
M  V30 12 O 10.8555 -3.9849 0.0 0
M  V30 13 C 11.9099 -2.6108 0.0 0
M  V30 14 C 6.9282 -1.5 0.0 0
M  V30 15 C 8.6602 -1.5 0.0 0
M  V30 16 O 10.6383 -0.2172 0.0 0
M  V30 17 C 12.0404 -1.6194 0.0 0 CFG=2
M  V30 18 C 11.8558 -0.2172 0.0 0
M  V30 19 O 10.1986 0.2749 0.0 0
M  V30 20 C 8.6602 -0.5 0.0 0 CFG=1
M  V30 21 C 6.9282 -0.5 0.0 0 CFG=1
M  V30 22 C 6.0621 -2.0 0.0 0
M  V30 23 C 9.1602 -2.366 0.0 0
M  V30 24 C 9.6602 -1.4999 0.0 0
M  V30 25 C 11.021 0.7065 0.0 0
M  V30 26 O 12.6492 -0.826 0.0 0
M  V30 27 C 9.683 1.1317 0.0 0
M  V30 28 O 8.9644 0.4526 0.0 0
M  V30 29 C 7.7942 0.0 0.0 0
M  V30 30 O 6.0621 0.0 0.0 0
M  V30 31 O 12.0125 0.8371 0.0 0
M  V30 32 C 10.4298 1.4902 0.0 0
M  V30 33 O 8.6831 1.1136 0.0 0
M  V30 34 C 10.1671 2.0067 0.0 0
M  V30 35 C 5.1961 -0.5 0.0 0
M  V30 36 C 9.6515 2.8635 0.0 0
M  V30 37 C 11.167 2.0249 0.0 0
M  V30 38 O 5.1961 -1.4999 0.0 0
M  V30 39 C 4.3301 0.0 0.0 0 CFG=1
M  V30 40 C 10.1357 3.7385 0.0 0
M  V30 41 C 11.6512 2.8999 0.0 0
M  V30 42 O 4.3301 1.0 0.0 0
M  V30 43 C 3.4641 -0.5 0.0 0 CFG=2
M  V30 44 C 11.1355 3.7566 0.0 0
M  V30 45 N 2.598 0.0 0.0 0
M  V30 46 C 3.4641 -1.5 0.0 0
M  V30 47 C 1.732 -0.5 0.0 0
M  V30 48 C 2.598 -1.9999 0.0 0
M  V30 49 C 4.3301 -2.0 0.0 0
M  V30 50 O 1.732 -1.5 0.0 0
M  V30 51 O 0.866 0.0 0.0 0
M  V30 52 C 2.598 -2.9999 0.0 0
M  V30 53 C 4.3301 -3.0 0.0 0
M  V30 54 C 0.0 -0.5 0.0 0
M  V30 55 C 3.4641 -3.5 0.0 0
M  V30 56 C 0.4999 -1.366 0.0 0
M  V30 57 C -0.866 -0.9999 0.0 0
M  V30 58 C -0.4999 0.366 0.0 0
M  V30 END ATOM
M  V30 BEGIN BOND
M  V30 1 2 1 2
M  V30 2 1 3 2
M  V30 3 1 4 2
M  V30 4 1 5 3
M  V30 5 1 6 3
M  V30 6 1 3 7 CFG=1
M  V30 7 1 4 8 CFG=1
M  V30 8 1 4 9
M  V30 9 1 10 5
M  V30 10 1 5 11 CFG=1
M  V30 11 1 6 12 CFG=1
M  V30 12 1 6 13
M  V30 13 2 9 14
M  V30 14 1 9 15
M  V30 15 1 10 16 CFG=3
M  V30 16 1 17 10
M  V30 17 1 10 18
M  V30 18 1 11 19 CFG=3
M  V30 19 1 20 11
M  V30 20 1 21 14
M  V30 21 1 14 22
M  V30 22 1 15 23
M  V30 23 1 15 24
M  V30 24 1 16 25
M  V30 25 1 17 26 CFG=1
M  V30 26 1 19 27
M  V30 27 1 20 28 CFG=1
M  V30 28 1 20 29
M  V30 29 1 21 30 CFG=3
M  V30 30 2 25 31
M  V30 31 1 25 32
M  V30 32 2 27 33
M  V30 33 1 27 34
M  V30 34 1 30 35
M  V30 35 2 34 36
M  V30 36 1 34 37
M  V30 37 2 35 38
M  V30 38 1 39 35
M  V30 39 1 36 40
M  V30 40 2 37 41
M  V30 41 1 39 42 CFG=3
M  V30 42 1 43 39
M  V30 43 2 40 44
M  V30 44 1 43 45 CFG=1
M  V30 45 1 43 46
M  V30 46 1 45 47
M  V30 47 2 46 48
M  V30 48 1 46 49
M  V30 49 2 47 50
M  V30 50 1 47 51
M  V30 51 1 48 52
M  V30 52 2 49 53
M  V30 53 1 51 54
M  V30 54 2 52 55
M  V30 55 1 54 56
M  V30 56 1 54 57
M  V30 57 1 54 58
M  V30 58 1 13 17
M  V30 59 1 15 20
M  V30 60 1 18 26
M  V30 61 1 21 29
M  V30 62 1 41 44
M  V30 63 1 53 55
M  V30 END BOND
M  V30 BEGIN COLLECTION
M  V30 MDLV30/STERAC1 ATOMS=(11 3 4 5 6 10 11 17 20 21 39 43)
M  V30 END COLLECTION
M  V30 END CTAB
M  END
>  <Molecule Name>


>  <status>
-

>  <cas>
114977-28-5

>  <name>
DOCETAXEL

>  <ID>
733

>  <Smiles>
CC(C)(C)OC(N[C@@H]([C@@H](C(O[C@H](C1)C(C)=C([C@@H](C([C@@](C)([C@@H](C[C@@H]2OC3)O)[C@@H]([C@H]4OC(c5ccccc5)=O)[C@]23OC(C)=O)=O)O)C(C)(C)[C@@]14O)=O)O)c1ccccc1)=O

$$$$

Actelion Java MolfileCreator 2.0

  0  0  0  0  0  0              0 V3000
M  V30 BEGIN CTAB
M  V30 COUNTS 25 27 0 0 0
M  V30 BEGIN ATOM
M  V30 1 P 3.9355 0.0 0.0 0
M  V30 2 O 4.6929 -1.3118 0.0 0
M  V30 3 O 2.6237 -0.7574 0.0 0
M  V30 4 O 5.2474 0.7574 0.0 0 CHG=-1
M  V30 5 O 3.1781 1.3118 0.0 0 CHG=-1
M  V30 6 C 1.3118 0.0 0.0 0
M  V30 7 N 0.0 -0.7574 0.0 0
M  V30 8 C -1.3838 -0.1412 0.0 0
M  V30 9 C -0.1583 -2.2639 0.0 0
M  V30 10 O -1.6987 1.3404 0.0 0
M  V30 11 N -2.3974 -1.267 0.0 0
M  V30 12 O 0.9673 -3.2775 0.0 0
M  V30 13 C -1.64 -2.5788 0.0 0
M  V30 14 C -2.2561 -3.9627 0.0 0
M  V30 15 C -3.1527 -2.6581 0.0 0
M  V30 16 C -3.587 -4.3765 0.0 0
M  V30 17 C -1.3657 -5.1882 0.0 0
M  V30 18 C -3.9778 -1.3877 0.0 0
M  V30 19 C -3.9282 -3.8801 0.0 0
M  V30 20 C -4.3788 -5.5049 0.0 0
M  V30 21 C -1.9819 -6.572 0.0 0
M  V30 22 C -5.4905 -1.4669 0.0 0
M  V30 23 C -5.3532 -4.0871 0.0 0
M  V30 24 C -3.4884 -6.7304 0.0 0
M  V30 25 C -6.1782 -2.8167 0.0 0
M  V30 END ATOM
M  V30 BEGIN BOND
M  V30 1 2 1 2
M  V30 2 1 1 3
M  V30 3 1 1 4
M  V30 4 1 1 5
M  V30 5 1 3 6
M  V30 6 1 6 7
M  V30 7 1 7 8
M  V30 8 1 7 9
M  V30 9 2 8 10
M  V30 10 1 8 11
M  V30 11 2 9 12
M  V30 12 1 9 13
M  V30 13 1 13 14
M  V30 14 1 13 15
M  V30 15 2 14 16
M  V30 16 1 14 17
M  V30 17 2 15 18
M  V30 18 1 15 19
M  V30 19 1 16 20
M  V30 20 2 17 21
M  V30 21 1 18 22
M  V30 22 2 19 23
M  V30 23 2 20 24
M  V30 24 2 22 25
M  V30 25 1 11 13
M  V30 26 1 21 24
M  V30 27 1 23 25
M  V30 END BOND
M  V30 END CTAB
M  END
>  <Molecule Name>


>  <status>
-

>  <cas>
93390-81-9

>  <name>
FOSPHENYTOIN

>  <ID>
734

>  <Smiles>
[O-]P([O-])(OCN(C(C(c1ccccc1)(c1ccccc1)N1)=O)C1=O)=O

$$$$

Actelion Java MolfileCreator 2.0

  0  0  0  0  0  0              0 V3000
M  V30 BEGIN CTAB
M  V30 COUNTS 16 17 0 0 0
M  V30 BEGIN ATOM
M  V30 1 S 3.5686 -1.4945 0.0 0
M  V30 2 C 4.5467 -1.7024 0.0 0
M  V30 3 C 3.4641 -0.5 0.0 0
M  V30 4 C 5.0467 -0.8364 0.0 0
M  V30 5 C 5.0467 -2.5684 0.0 0
M  V30 6 C 4.3776 -0.0932 0.0 0
M  V30 7 C 2.598 0.0 0.0 0 CFG=1
M  V30 8 C 6.0467 -0.8364 0.0 0
M  V30 9 C 6.0467 -2.5684 0.0 0
M  V30 10 N 1.732 -0.5 0.0 0
M  V30 11 C 2.598 1.0 0.0 0
M  V30 12 C 6.5467 -1.7024 0.0 0
M  V30 13 O 1.732 -1.5 0.0 0
M  V30 14 C 0.866 0.0 0.0 0
M  V30 15 O 0.866 1.0 0.0 0
M  V30 16 N 0.0 -0.5 0.0 0
M  V30 END ATOM
M  V30 BEGIN BOND
M  V30 1 1 1 2
M  V30 2 1 1 3
M  V30 3 2 2 4
M  V30 4 1 2 5
M  V30 5 2 3 6
M  V30 6 1 7 3
M  V30 7 1 4 8
M  V30 8 2 5 9
M  V30 9 1 7 10 CFG=1
M  V30 10 1 7 11
M  V30 11 2 8 12
M  V30 12 1 10 13
M  V30 13 1 10 14
M  V30 14 2 14 15
M  V30 15 1 14 16
M  V30 16 1 4 6
M  V30 17 1 9 12
M  V30 END BOND
M  V30 BEGIN COLLECTION
M  V30 MDLV30/STERAC1 ATOMS=(1 7)
M  V30 END COLLECTION
M  V30 END CTAB
M  END
>  <Molecule Name>


>  <status>
-

>  <cas>
111406-87-2

>  <name>
ZILEUTON

>  <ID>
735

>  <Smiles>
CC(c1cc(cccc2)c2s1)N(C(N)=O)O

$$$$

Actelion Java MolfileCreator 2.0

  0  0  0  0  0  0              0 V3000
M  V30 BEGIN CTAB
M  V30 COUNTS 16 17 0 0 0
M  V30 BEGIN ATOM
M  V30 1 S 3.5686 -1.4945 0.0 0
M  V30 2 C 4.5467 -1.7024 0.0 0
M  V30 3 C 3.4641 -0.5 0.0 0
M  V30 4 C 5.0467 -0.8364 0.0 0
M  V30 5 C 5.0467 -2.5684 0.0 0
M  V30 6 C 4.3776 -0.0932 0.0 0
M  V30 7 C 2.598 0.0 0.0 0 CFG=1
M  V30 8 C 6.0467 -0.8364 0.0 0
M  V30 9 C 6.0467 -2.5684 0.0 0
M  V30 10 N 1.732 -0.5 0.0 0
M  V30 11 C 2.598 1.0 0.0 0
M  V30 12 C 6.5467 -1.7024 0.0 0
M  V30 13 O 1.732 -1.5 0.0 0
M  V30 14 C 0.866 0.0 0.0 0
M  V30 15 O 0.866 1.0 0.0 0
M  V30 16 N 0.0 -0.5 0.0 0
M  V30 END ATOM
M  V30 BEGIN BOND
M  V30 1 1 1 2
M  V30 2 1 1 3
M  V30 3 2 2 4
M  V30 4 1 2 5
M  V30 5 2 3 6
M  V30 6 1 7 3
M  V30 7 1 4 8
M  V30 8 2 5 9
M  V30 9 1 7 10 CFG=1
M  V30 10 1 7 11
M  V30 11 2 8 12
M  V30 12 1 10 13
M  V30 13 1 10 14
M  V30 14 2 14 15
M  V30 15 1 14 16
M  V30 16 1 4 6
M  V30 17 1 9 12
M  V30 END BOND
M  V30 BEGIN COLLECTION
M  V30 MDLV30/STERAC1 ATOMS=(1 7)
M  V30 END COLLECTION
M  V30 END CTAB
M  END
>  <Molecule Name>


>  <status>
-

>  <cas>
111406-87-2

>  <name>
ZILEUTON

>  <ID>
736

>  <Smiles>
CC(c1cc(cccc2)c2s1)N(C(N)=O)O

$$$$

Actelion Java MolfileCreator 2.0

  0  0  0  0  0  0              0 V3000
M  V30 BEGIN CTAB
M  V30 COUNTS 27 30 0 0 0
M  V30 BEGIN ATOM
M  V30 1 O 9.8602 -9.8463 0.0 0
M  V30 2 C 8.8538 -8.7286 0.0 0
M  V30 3 C 7.3826 -9.0413 0.0 0
M  V30 4 C 9.3185 -7.2982 0.0 0
M  V30 5 C 6.3762 -7.9236 0.0 0
M  V30 6 C 8.3121 -6.1805 0.0 0
M  V30 7 C 6.841 -6.4932 0.0 0 CFG=2
M  V30 8 C 4.905 -8.2363 0.0 0
M  V30 9 C 5.8346 -5.3755 0.0 0 CFG=1
M  V30 10 C 7.3058 -5.0628 0.0 0
M  V30 11 C 3.8987 -7.1186 0.0 0
M  V30 12 C 6.2994 -3.9451 0.0 0 CFG=1
M  V30 13 C 4.3634 -5.6882 0.0 0 CFG=1
M  V30 14 O 7.7705 -3.6323 0.0 0
M  V30 15 C 5.293 -2.8273 0.0 0
M  V30 16 C 3.357 -4.5705 0.0 0 CFG=1
M  V30 17 C 3.8218 -3.14 0.0 0 CFG=1
M  V30 18 C 1.853 -4.5705 0.0 0
M  V30 19 C 2.605 -2.256 0.0 0 CFG=2
M  V30 20 C 4.3754 -1.7906 0.0 0
M  V30 21 C 1.3882 -3.14 0.0 0 CFG=2
M  V30 22 C 2.605 -0.752 0.0 0
M  V30 23 C 3.8247 -1.5123 0.0 0
M  V30 24 C -0.0421 -2.6753 0.0 0
M  V30 25 O 3.9075 0.0 0.0 0
M  V30 26 C 1.3025 0.0 0.0 0
M  V30 27 C 0.0 -0.752 0.0 0
M  V30 END ATOM
M  V30 BEGIN BOND
M  V30 1 2 1 2
M  V30 2 1 2 3
M  V30 3 1 2 4
M  V30 4 2 3 5
M  V30 5 2 4 6
M  V30 6 1 7 5
M  V30 7 1 5 8
M  V30 8 1 9 7
M  V30 9 1 7 10 CFG=3
M  V30 10 1 8 11
M  V30 11 1 9 12 CFG=3
M  V30 12 1 13 9
M  V30 13 1 12 14 CFG=3
M  V30 14 1 12 15
M  V30 15 1 16 13
M  V30 16 1 17 15
M  V30 17 1 16 18 CFG=3
M  V30 18 1 19 17
M  V30 19 1 17 20 CFG=3
M  V30 20 1 21 18
M  V30 21 1 19 22
M  V30 22 1 19 23 CFG=1
M  V30 23 1 21 24 CFG=1
M  V30 24 2 22 25
M  V30 25 1 22 26
M  V30 26 1 26 27
M  V30 27 1 6 7
M  V30 28 1 13 11 CFG=1
M  V30 29 1 16 17
M  V30 30 1 19 21
M  V30 END BOND
M  V30 BEGIN COLLECTION
M  V30 MDLV30/STERAC1 ATOMS=(8 7 9 12 13 16 17 19 21)
M  V30 END COLLECTION
M  V30 END CTAB
M  END
>  <Molecule Name>


>  <status>
DISCONTINUED

>  <cas>
49697-38-3

>  <name>
RIMEXOLONE

>  <ID>
737

>  <Smiles>
CCC([C@@](C)([C@H](C)C1)[C@@](C)(C[C@@H]2O)[C@@H]1[C@H](CC1)[C@H]2[C@@](C)(C=C2)C1=CC2=O)=O

$$$$

Actelion Java MolfileCreator 2.0

  0  0  0  0  0  0              0 V3000
M  V30 BEGIN CTAB
M  V30 COUNTS 12 11 0 0 0
M  V30 BEGIN ATOM
M  V30 1 F 3.9641 0.366 0.0 0
M  V30 2 C 3.4641 -0.5 0.0 0
M  V30 3 F 4.3301 -0.9999 0.0 0
M  V30 4 F 2.9641 -1.366 0.0 0
M  V30 5 C 2.598 0.0 0.0 0
M  V30 6 O 1.732 -0.5 0.0 0
M  V30 7 C 2.598 1.0 0.0 0
M  V30 8 C 0.866 0.0 0.0 0
M  V30 9 F 1.598 1.0 0.0 0
M  V30 10 F 2.598 2.0 0.0 0
M  V30 11 F 3.598 1.0 0.0 0
M  V30 12 F 0.0 -0.5 0.0 0
M  V30 END ATOM
M  V30 BEGIN BOND
M  V30 1 1 1 2
M  V30 2 1 2 3
M  V30 3 1 2 4
M  V30 4 1 2 5
M  V30 5 1 5 6
M  V30 6 1 5 7
M  V30 7 1 6 8
M  V30 8 1 7 9
M  V30 9 1 7 10
M  V30 10 1 7 11
M  V30 11 1 8 12
M  V30 END BOND
M  V30 END CTAB
M  END
>  <Molecule Name>


>  <status>
-

>  <cas>
28523-86-6

>  <name>
SEVOFLURANE

>  <ID>
738

>  <Smiles>
FCOC(C(F)(F)F)C(F)(F)F

$$$$

Actelion Java MolfileCreator 2.0

  0  0  0  0  0  0              0 V3000
M  V30 BEGIN CTAB
M  V30 COUNTS 44 47 0 0 0
M  V30 BEGIN ATOM
M  V30 1 O 1.732 -1.5 0.0 0
M  V30 2 C 1.732 -0.5 0.0 0 CFG=2
M  V30 3 C 2.598 -1.9999 0.0 0 CFG=1
M  V30 4 O 0.866 0.0 0.0 0
M  V30 5 C 2.598 0.0 0.0 0 CFG=2
M  V30 6 C 3.4641 -1.4999 0.0 0 CFG=2
M  V30 7 C 2.598 -2.9999 0.0 0
M  V30 8 C 0.0 -0.5 0.0 0 CFG=1
M  V30 9 O 2.598 1.0 0.0 0
M  V30 10 C 3.4641 -0.4999 0.0 0 CFG=2
M  V30 11 O 4.3301 -1.9999 0.0 0
M  V30 12 O 1.732 -3.5 0.0 0
M  V30 13 C 0.0 -1.5 0.0 0 CFG=2
M  V30 14 C -0.866 0.0 0.0 0 CFG=2
M  V30 15 O 4.3301 0.0 0.0 0
M  V30 16 C 5.1961 -1.4999 0.0 0 CFG=1
M  V30 17 O 0.866 -2.0 0.0 0
M  V30 18 C -0.866 -2.0 0.0 0 CFG=1
M  V30 19 O -1.732 -0.5 0.0 0
M  V30 20 C -0.866 0.9999 0.0 0
M  V30 21 O 5.1961 -0.4999 0.0 0
M  V30 22 C 6.0621 -1.9999 0.0 0 CFG=2
M  V30 23 O -0.866 -3.0 0.0 0
M  V30 24 C -1.732 -1.5 0.0 0 CFG=2
M  V30 25 O 0.0 1.4999 0.0 0
M  V30 26 C 6.0621 0.0 0.0 0 CFG=1
M  V30 27 O 6.0621 -2.9999 0.0 0
M  V30 28 C 6.9282 -1.4999 0.0 0 CFG=2
M  V30 29 O -2.598 -2.0 0.0 0
M  V30 30 C 6.9282 -0.4999 0.0 0 CFG=2
M  V30 31 C 6.0621 1.0 0.0 0
M  V30 32 O 7.7942 -1.9999 0.0 0
M  V30 33 N 7.7942 0.0 0.0 0
M  V30 34 C 7.7942 1.0 0.0 0 CFG=1
M  V30 35 C 6.9282 1.5 0.0 0
M  V30 36 C 8.6602 1.5 0.0 0 CFG=2
M  V30 37 C 6.9282 2.5 0.0 0
M  V30 38 O 9.5262 1.0 0.0 0
M  V30 39 C 8.6602 2.5 0.0 0 CFG=2
M  V30 40 C 7.7942 3.0 0.0 0 CFG=2
M  V30 41 C 6.0621 3.0 0.0 0
M  V30 42 O 9.5262 3.0 0.0 0
M  V30 43 O 7.7942 4.0 0.0 0
M  V30 44 O 6.0621 4.0 0.0 0
M  V30 END ATOM
M  V30 BEGIN BOND
M  V30 1 1 2 1
M  V30 2 1 3 1
M  V30 3 1 2 4 CFG=3
M  V30 4 1 5 2
M  V30 5 1 6 3
M  V30 6 1 3 7 CFG=1
M  V30 7 1 8 4 CFG=1
M  V30 8 1 5 9 CFG=3
M  V30 9 1 10 5
M  V30 10 1 6 11 CFG=3
M  V30 11 1 7 12
M  V30 12 1 13 8
M  V30 13 1 14 8
M  V30 14 1 10 15 CFG=1
M  V30 15 1 16 11 CFG=1
M  V30 16 1 13 17 CFG=3
M  V30 17 1 18 13
M  V30 18 1 14 19
M  V30 19 1 14 20 CFG=3
M  V30 20 1 16 21
M  V30 21 1 22 16
M  V30 22 1 18 23 CFG=1
M  V30 23 1 24 18
M  V30 24 1 20 25
M  V30 25 1 26 21
M  V30 26 1 22 27 CFG=1
M  V30 27 1 28 22
M  V30 28 1 24 29 CFG=1
M  V30 29 1 30 26
M  V30 30 1 26 31 CFG=3
M  V30 31 1 28 32 CFG=3
M  V30 32 1 30 33 CFG=1
M  V30 33 1 34 33 CFG=1
M  V30 34 1 34 35
M  V30 35 1 36 34
M  V30 36 2 35 37
M  V30 37 1 36 38 CFG=1
M  V30 38 1 39 36
M  V30 39 1 40 37
M  V30 40 1 37 41
M  V30 41 1 39 42 CFG=3
M  V30 42 1 40 43 CFG=1
M  V30 43 1 41 44
M  V30 44 1 6 10
M  V30 45 1 19 24
M  V30 46 1 28 30
M  V30 47 1 39 40
M  V30 END BOND
M  V30 BEGIN COLLECTION
M  V30 MDLV30/STERAC1 ATOMS=(19 2 3 5 6 8 10 13 14 16 18 22 24 26 28 30 34 36 39 40)
M  V30 END COLLECTION
M  V30 END CTAB
M  END
>  <Molecule Name>


>  <status>
-

>  <cas>
56180-94-0

>  <name>
ACARBOSE

>  <ID>
739

>  <Smiles>
C[C@H]([C@H]([C@@H]([C@H]1O)O)N[C@H]([C@@H]([C@H]2O)O)C=C(CO)[C@H]2O)O[C@@H]1O[C@H]([C@@H](CO)O[C@@H]([C@@H]1O)O[C@H]([C@@H](CO)O[C@@H]([C@@H]2O)O)[C@@H]2O)[C@@H]1O

$$$$

Actelion Java MolfileCreator 2.0

  0  0  0  0  0  0              0 V3000
M  V30 BEGIN CTAB
M  V30 COUNTS 23 24 0 0 0
M  V30 BEGIN ATOM
M  V30 1 O 11.0241 0.8716 0.0 0
M  V30 2 C 10.355 0.1284 0.0 0
M  V30 3 N 10.664 -0.8225 0.0 0
M  V30 4 C 9.3769 0.3364 0.0 0
M  V30 5 C 9.9949 -1.5657 0.0 0
M  V30 6 N 8.8769 1.2024 0.0 0
M  V30 7 C 8.7077 -0.4067 0.0 0
M  V30 8 N 9.0167 -1.3577 0.0 0
M  V30 9 N 10.3039 -2.5167 0.0 0
M  V30 10 C 7.8987 0.9945 0.0 0
M  V30 11 N 7.7942 0.0 0.0 0
M  V30 12 C 6.9282 -0.5 0.0 0
M  V30 13 O 6.0621 0.0 0.0 0
M  V30 14 C 5.1961 -0.5 0.0 0
M  V30 15 C 4.3301 0.0 0.0 0
M  V30 16 O 3.4641 -0.5 0.0 0
M  V30 17 C 2.598 0.0 0.0 0
M  V30 18 O 2.598 1.0 0.0 0
M  V30 19 C 1.732 -0.5 0.0 0 CFG=1
M  V30 20 N 1.732 -1.5 0.0 0
M  V30 21 C 0.866 0.0 0.0 0
M  V30 22 C 0.866 1.0 0.0 0
M  V30 23 C 0.0 -0.5 0.0 0
M  V30 END ATOM
M  V30 BEGIN BOND
M  V30 1 2 1 2
M  V30 2 1 2 3
M  V30 3 1 2 4
M  V30 4 1 3 5
M  V30 5 1 4 6
M  V30 6 2 4 7
M  V30 7 2 5 8
M  V30 8 1 5 9
M  V30 9 2 6 10
M  V30 10 1 7 11
M  V30 11 1 11 12
M  V30 12 1 12 13
M  V30 13 1 13 14
M  V30 14 1 14 15
M  V30 15 1 15 16
M  V30 16 1 16 17
M  V30 17 2 17 18
M  V30 18 1 19 17
M  V30 19 1 19 20 CFG=1
M  V30 20 1 19 21
M  V30 21 1 21 22
M  V30 22 1 21 23
M  V30 23 1 7 8
M  V30 24 1 10 11
M  V30 END BOND
M  V30 BEGIN COLLECTION
M  V30 MDLV30/STERAC1 ATOMS=(1 19)
M  V30 END COLLECTION
M  V30 END CTAB
M  END
>  <Molecule Name>


>  <status>
-

>  <cas>
124832-26-4

>  <name>
VALACYCLOVIR

>  <ID>
740

>  <Smiles>
CC(C)C(C(OCCOCn1c(N=C(N)NC2=O)c2nc1)=O)N

$$$$

Actelion Java MolfileCreator 2.0

  0  0  0  0  0  0              0 V3000
M  V30 BEGIN CTAB
M  V30 COUNTS 17 19 0 0 0
M  V30 BEGIN ATOM
M  V30 1 Br 0.866 -1.9999 0.0 0
M  V30 2 C 1.732 -1.4999 0.0 0
M  V30 3 C 2.598 -1.9999 0.0 0
M  V30 4 C 1.732 -0.5 0.0 0
M  V30 5 N 2.598 -2.9999 0.0 0
M  V30 6 C 3.4641 -1.4999 0.0 0
M  V30 7 N 0.866 0.0 0.0 0
M  V30 8 C 2.598 0.0 0.0 0
M  V30 9 C 3.4641 -3.5 0.0 0
M  V30 10 N 4.3301 -2.0 0.0 0
M  V30 11 C 3.4641 -0.5 0.0 0
M  V30 12 C 0.0 -0.5 0.0 0
M  V30 13 C 4.3301 -3.0 0.0 0
M  V30 14 N -0.9135 -0.0932 0.0 0
M  V30 15 N -0.1045 -1.4945 0.0 0
M  V30 16 C -1.5826 -0.8364 0.0 0
M  V30 17 C -1.0826 -1.7024 0.0 0
M  V30 END ATOM
M  V30 BEGIN BOND
M  V30 1 1 1 2
M  V30 2 1 2 3
M  V30 3 2 2 4
M  V30 4 2 3 5
M  V30 5 1 3 6
M  V30 6 1 4 7
M  V30 7 1 4 8
M  V30 8 1 5 9
M  V30 9 2 6 10
M  V30 10 1 6 11
M  V30 11 1 7 12
M  V30 12 2 9 13
M  V30 13 2 12 14
M  V30 14 1 12 15
M  V30 15 1 14 16
M  V30 16 1 15 17
M  V30 17 2 8 11
M  V30 18 1 10 13
M  V30 19 1 16 17
M  V30 END BOND
M  V30 END CTAB
M  END
>  <Molecule Name>


>  <status>
-

>  <cas>
59803-98-4

>  <name>
BRIMONIDINE

>  <ID>
741

>  <Smiles>
Brc(c1nccnc1cc1)c1NC1=NCCN1

$$$$

Actelion Java MolfileCreator 2.0

  0  0  0  0  0  0              0 V3000
M  V30 BEGIN CTAB
M  V30 COUNTS 34 36 0 0 0
M  V30 BEGIN ATOM
M  V30 1 S 10.3923 2.25 0.0 0
M  V30 2 O 11.1423 3.549 0.0 0
M  V30 3 O 9.6423 3.549 0.0 0
M  V30 4 N 11.6913 1.5 0.0 0
M  V30 5 C 9.0932 1.5 0.0 0
M  V30 6 C 12.9903 2.25 0.0 0
M  V30 7 C 7.7942 2.25 0.0 0
M  V30 8 C 9.0932 0.0 0.0 0
M  V30 9 O 12.9903 3.75 0.0 0
M  V30 10 N 14.2894 1.5 0.0 0
M  V30 11 C 6.4951 1.5 0.0 0
M  V30 12 C 7.7942 -0.75 0.0 0
M  V30 13 C 15.5884 2.25 0.0 0 CFG=1
M  V30 14 C 6.4951 0.0 0.0 0
M  V30 15 C 16.8875 1.5 0.0 0
M  V30 16 C 15.5884 3.75 0.0 0
M  V30 17 C 5.1961 -0.75 0.0 0
M  V30 18 C 18.1865 2.25 0.0 0
M  V30 19 C 16.8875 4.5 0.0 0
M  V30 20 C 3.8971 0.0 0.0 0
M  V30 21 C 18.1865 3.75 0.0 0 CFG=1
M  V30 22 N 2.598 -0.75 0.0 0
M  V30 23 C 19.4855 4.5 0.0 0
M  V30 24 C 1.299 0.0 0.0 0
M  V30 25 O 1.299 1.5 0.0 0
M  V30 26 N 0.0 -0.75 0.0 0
M  V30 27 C -1.3703 -0.1398 0.0 0
M  V30 28 C -0.1567 -2.2417 0.0 0
M  V30 29 O -1.6821 1.3273 0.0 0
M  V30 30 C -2.374 -1.2546 0.0 0
M  V30 31 C -1.624 -2.5536 0.0 0
M  V30 32 C -3.8658 -1.0978 0.0 0
M  V30 33 C -2.2341 -3.9239 0.0 0
M  V30 34 C -4.7474 -2.3113 0.0 0
M  V30 END ATOM
M  V30 BEGIN BOND
M  V30 1 2 1 2
M  V30 2 2 1 3
M  V30 3 1 1 4
M  V30 4 1 1 5
M  V30 5 1 4 6
M  V30 6 2 5 7
M  V30 7 1 5 8
M  V30 8 2 6 9
M  V30 9 1 6 10
M  V30 10 1 7 11
M  V30 11 2 8 12
M  V30 12 1 13 10 CFG=3
M  V30 13 2 11 14
M  V30 14 1 13 15
M  V30 15 1 13 16
M  V30 16 1 14 17
M  V30 17 1 15 18
M  V30 18 1 16 19
M  V30 19 1 17 20
M  V30 20 1 21 18
M  V30 21 1 20 22
M  V30 22 1 21 23 CFG=1
M  V30 23 1 22 24
M  V30 24 2 24 25
M  V30 25 1 24 26
M  V30 26 1 26 27
M  V30 27 1 26 28
M  V30 28 2 27 29
M  V30 29 1 27 30
M  V30 30 1 28 31
M  V30 31 1 30 32
M  V30 32 1 31 33
M  V30 33 1 32 34
M  V30 34 1 12 14
M  V30 35 1 19 21
M  V30 36 2 30 31
M  V30 END BOND
M  V30 BEGIN COLLECTION
M  V30 MDLV30/STEABS ATOMS=(2 13 21)
M  V30 END COLLECTION
M  V30 END CTAB
M  END
>  <Molecule Name>


>  <status>
-

>  <cas>
93479-97-1

>  <name>
GLIMEPIRIDE

>  <ID>
742

>  <Smiles>
CCC1=C(C)CN(C(NCCc(cc2)ccc2S(NC(N[C@H]2CC[C@H](C)CC2)=O)(=O)=O)=O)C1=O

$$$$

Actelion Java MolfileCreator 2.0

  0  0  0  0  0  0              0 V3000
M  V30 BEGIN CTAB
M  V30 COUNTS 29 30 0 0 0
M  V30 BEGIN ATOM
M  V30 1 S 6.4952 0.0 0.0 0
M  V30 2 O 7.9951 0.0 0.0 0
M  V30 3 O 7.2451 -1.299 0.0 0
M  V30 4 C 6.4952 1.5 0.0 0
M  V30 5 C 5.1961 -0.75 0.0 0
M  V30 6 C 5.1961 2.25 0.0 0
M  V30 7 C 7.7942 2.25 0.0 0
M  V30 8 C 3.8971 0.0 0.0 0 CFG=2
M  V30 9 C 5.1961 3.75 0.0 0
M  V30 10 C 7.7942 3.75 0.0 0
M  V30 11 O 4.6471 1.299 0.0 0
M  V30 12 C 2.598 -0.75 0.0 0
M  V30 13 C 3.1471 1.299 0.0 0
M  V30 14 C 6.4952 4.5 0.0 0
M  V30 15 O 2.598 -2.25 0.0 0
M  V30 16 N 1.299 0.0 0.0 0
M  V30 17 F 6.4952 6.0 0.0 0
M  V30 18 C 0.0 -0.75 0.0 0
M  V30 19 C -1.299 0.0 0.0 0
M  V30 20 C 0.0 -2.25 0.0 0
M  V30 21 C -2.598 -0.75 0.0 0
M  V30 22 C -1.299 -3.0 0.0 0
M  V30 23 C -2.598 -2.25 0.0 0
M  V30 24 C -3.8971 0.0 0.0 0
M  V30 25 C -3.8971 -3.0 0.0 0
M  V30 26 F -4.6471 -1.299 0.0 0
M  V30 27 F -5.1961 0.75 0.0 0
M  V30 28 F -3.1471 1.299 0.0 0
M  V30 29 N -5.1961 -3.75 0.0 0
M  V30 END ATOM
M  V30 BEGIN BOND
M  V30 1 2 1 2
M  V30 2 2 1 3
M  V30 3 1 1 4
M  V30 4 1 1 5
M  V30 5 2 4 6
M  V30 6 1 4 7
M  V30 7 1 8 5
M  V30 8 1 6 9
M  V30 9 2 7 10
M  V30 10 1 8 11 CFG=1
M  V30 11 1 8 12
M  V30 12 1 8 13
M  V30 13 2 9 14
M  V30 14 2 12 15
M  V30 15 1 12 16
M  V30 16 1 14 17
M  V30 17 1 16 18
M  V30 18 2 18 19
M  V30 19 1 18 20
M  V30 20 1 19 21
M  V30 21 2 20 22
M  V30 22 2 21 23
M  V30 23 1 21 24
M  V30 24 1 23 25
M  V30 25 1 24 26
M  V30 26 1 24 27
M  V30 27 1 24 28
M  V30 28 3 25 29
M  V30 29 1 10 14
M  V30 30 1 22 23
M  V30 END BOND
M  V30 BEGIN COLLECTION
M  V30 MDLV30/STERAC1 ATOMS=(1 8)
M  V30 END COLLECTION
M  V30 END CTAB
M  END
>  <Molecule Name>


>  <status>
-

>  <cas>
90357-06-5

>  <name>
BICALUTAMIDE

>  <ID>
743

>  <Smiles>
CC(CS(c(cc1)ccc1F)(=O)=O)(C(Nc(cc1)cc(C(F)(F)F)c1C#N)=O)O

$$$$

Actelion Java MolfileCreator 2.0

  0  0  0  0  0  0              0 V3000
M  V30 BEGIN CTAB
M  V30 COUNTS 22 24 0 0 0
M  V30 BEGIN ATOM
M  V30 1 S 3.8971 0.0 0.0 0
M  V30 2 O 4.6471 -1.299 0.0 0
M  V30 3 O 3.1471 1.299 0.0 0
M  V30 4 O 2.598 -0.75 0.0 0
M  V30 5 N 5.1961 0.75 0.0 0
M  V30 6 C 1.299 0.0 0.0 0
M  V30 7 C 0.0 -0.75 0.0 0 CFG=1
M  V30 8 O 1.2135 -1.6316 0.0 0
M  V30 9 O -0.1567 0.7417 0.0 0
M  V30 10 C -1.3703 -1.3601 0.0 0 CFG=2
M  V30 11 C 1.0567 -3.1234 0.0 0
M  V30 12 C -1.624 1.0536 0.0 0
M  V30 13 O -2.374 -0.2453 0.0 0
M  V30 14 C -1.5271 -2.8518 0.0 0 CFG=2
M  V30 15 C -0.3135 -3.7335 0.0 0 CFG=1
M  V30 16 C -1.4672 2.5454 0.0 0
M  V30 17 C -2.8375 1.9353 0.0 0
M  V30 18 O -2.7406 -3.7335 0.0 0
M  V30 19 O -0.7771 -5.1601 0.0 0
M  V30 20 C -2.2771 -5.1601 0.0 0
M  V30 21 C -3.6474 -5.7702 0.0 0
M  V30 22 C -2.4338 -6.6519 0.0 0
M  V30 END ATOM
M  V30 BEGIN BOND
M  V30 1 2 1 2
M  V30 2 2 1 3
M  V30 3 1 1 4
M  V30 4 1 1 5
M  V30 5 1 4 6
M  V30 6 1 7 6 CFG=3
M  V30 7 1 7 8
M  V30 8 1 7 9
M  V30 9 1 10 7
M  V30 10 1 8 11
M  V30 11 1 9 12
M  V30 12 1 10 13 CFG=1
M  V30 13 1 14 10
M  V30 14 1 15 11
M  V30 15 1 12 16
M  V30 16 1 12 17
M  V30 17 1 14 18 CFG=3
M  V30 18 1 15 19 CFG=3
M  V30 19 1 18 20
M  V30 20 1 20 21
M  V30 21 1 20 22
M  V30 22 1 12 13
M  V30 23 1 14 15
M  V30 24 1 19 20
M  V30 END BOND
M  V30 BEGIN COLLECTION
M  V30 MDLV30/STERAC1 ATOMS=(4 7 10 14 15)
M  V30 END COLLECTION
M  V30 END CTAB
M  END
>  <Molecule Name>


>  <status>
-

>  <cas>
97240-79-4

>  <name>
TOPIRAMATE

>  <ID>
744

>  <Smiles>
CC1(C)O[C@@H]2[C@H]3OC(C)(C)O[C@@]3(COS(N)(=O)=O)OC[C@@H]2O1

$$$$

Actelion Java MolfileCreator 2.0

  0  0  0  0  0  0              0 V3000
M  V30 BEGIN CTAB
M  V30 COUNTS 18 19 0 0 0
M  V30 BEGIN ATOM
M  V30 1 F 4.0652 -4.0454 0.0 0
M  V30 2 C 4.2221 -2.5536 0.0 0
M  V30 3 F 5.4356 -3.4353 0.0 0
M  V30 4 C 4.9721 -1.2546 0.0 0 CFG=2
M  V30 5 C 2.7548 -2.2417 0.0 0 CFG=1
M  V30 6 O 3.9684 -0.1398 0.0 0
M  V30 7 N 6.4638 -1.0978 0.0 0
M  V30 8 O 1.6401 -3.2454 0.0 0
M  V30 9 C 2.598 -0.75 0.0 0 CFG=1
M  V30 10 C 7.3455 -2.3113 0.0 0
M  V30 11 C 7.0739 0.2724 0.0 0
M  V30 12 C 1.299 0.0 0.0 0
M  V30 13 O 6.7354 -3.6816 0.0 0
M  V30 14 N 8.8373 -2.1545 0.0 0
M  V30 15 C 8.5657 0.4292 0.0 0
M  V30 16 O 0.0 -0.75 0.0 0
M  V30 17 C 9.4474 -0.7842 0.0 0
M  V30 18 N 10.9392 -0.6274 0.0 0
M  V30 END ATOM
M  V30 BEGIN BOND
M  V30 1 1 1 2
M  V30 2 1 2 3
M  V30 3 1 4 2
M  V30 4 1 5 2
M  V30 5 1 4 6
M  V30 6 1 4 7 CFG=3
M  V30 7 1 5 8 CFG=1
M  V30 8 1 9 5
M  V30 9 1 7 10
M  V30 10 1 7 11
M  V30 11 1 9 12 CFG=3
M  V30 12 2 10 13
M  V30 13 1 10 14
M  V30 14 2 11 15
M  V30 15 1 12 16
M  V30 16 2 14 17
M  V30 17 1 17 18
M  V30 18 1 6 9
M  V30 19 1 15 17
M  V30 END BOND
M  V30 BEGIN COLLECTION
M  V30 MDLV30/STERAC1 ATOMS=(3 4 5 9)
M  V30 END COLLECTION
M  V30 END CTAB
M  END
>  <Molecule Name>


>  <status>
-

>  <cas>
95058-81-4

>  <name>
GEMCITABINE

>  <ID>
745

>  <Smiles>
NC(C=CN1[C@H](C2(F)F)O[C@@H](CO)[C@@H]2O)=NC1=O

$$$$

Actelion Java MolfileCreator 2.0

  0  0  0  0  0  0              0 V3000
M  V30 BEGIN CTAB
M  V30 COUNTS 22 24 0 0 0
M  V30 BEGIN ATOM
M  V30 1 O 4.3301 0.9999 0.0 0
M  V30 2 C 4.3301 0.0 0.0 0
M  V30 3 C 3.4641 -0.5 0.0 0
M  V30 4 C 5.1961 -0.5 0.0 0
M  V30 5 C 3.4641 -1.5 0.0 0
M  V30 6 C 2.598 0.0 0.0 0
M  V30 7 C 5.1961 -1.5 0.0 0
M  V30 8 C 6.0621 0.0 0.0 0
M  V30 9 O 4.3301 -2.0 0.0 0
M  V30 10 N 2.598 -2.0 0.0 0
M  V30 11 C 1.732 -0.5 0.0 0
M  V30 12 C 6.0621 -1.9999 0.0 0
M  V30 13 C 6.9282 -0.5 0.0 0
M  V30 14 C 1.732 -1.4999 0.0 0
M  V30 15 C 0.866 0.0 0.0 0
M  V30 16 C 6.9282 -1.5 0.0 0
M  V30 17 C 7.7942 0.0 0.0 0
M  V30 18 N 0.866 -1.9999 0.0 0
M  V30 19 O 0.866 1.0 0.0 0
M  V30 20 O 0.0 -0.5 0.0 0 CHG=-1
M  V30 21 C 8.6602 -0.4999 0.0 0
M  V30 22 C 7.7942 1.0 0.0 0
M  V30 END ATOM
M  V30 BEGIN BOND
M  V30 1 2 1 2
M  V30 2 1 2 3
M  V30 3 1 2 4
M  V30 4 2 3 5
M  V30 5 1 3 6
M  V30 6 2 4 7
M  V30 7 1 4 8
M  V30 8 1 5 9
M  V30 9 1 5 10
M  V30 10 2 6 11
M  V30 11 1 7 12
M  V30 12 2 8 13
M  V30 13 2 10 14
M  V30 14 1 11 15
M  V30 15 2 12 16
M  V30 16 1 13 17
M  V30 17 1 14 18
M  V30 18 2 15 19
M  V30 19 1 15 20
M  V30 20 1 17 21
M  V30 21 1 17 22
M  V30 22 1 7 9
M  V30 23 1 11 14
M  V30 24 1 13 16
M  V30 END BOND
M  V30 END CTAB
M  END
>  <Molecule Name>


>  <status>
DISCONTINUED

>  <cas>
68302-57-8

>  <name>
AMLEXANOX

>  <ID>
746

>  <Smiles>
CC(C)c(cc1)cc2c1Oc(nc(c(C([O-])=O)c1)N)c1C2=O

$$$$

Actelion Java MolfileCreator 2.0

  0  0  0  0  0  0              0 V3000
M  V30 BEGIN CTAB
M  V30 COUNTS 24 26 0 0 0
M  V30 BEGIN ATOM
M  V30 1 N 1.732 -0.5 0.0 0
M  V30 2 C 2.598 0.0 0.0 0
M  V30 3 C 0.866 0.0 0.0 0
M  V30 4 C 1.732 -1.5 0.0 0
M  V30 5 C 3.4641 -0.5 0.0 0
M  V30 6 C 0.0 -0.5 0.0 0
M  V30 7 C 3.4641 -1.5 0.0 0
M  V30 8 C 4.3301 0.0 0.0 0
M  V30 9 C -0.866 0.0 0.0 0
M  V30 10 C 0.0 -1.4999 0.0 0
M  V30 11 C 4.3301 -2.0 0.0 0
M  V30 12 C 2.598 -1.9999 0.0 0
M  V30 13 C 5.1961 -0.5 0.0 0
M  V30 14 C -1.732 -0.4999 0.0 0
M  V30 15 C -0.866 -1.9999 0.0 0
M  V30 16 C 5.1961 -1.5 0.0 0
M  V30 17 C 4.3301 -3.0 0.0 0
M  V30 18 C 2.598 -2.9999 0.0 0
M  V30 19 C -1.732 -1.4999 0.0 0
M  V30 20 C 3.4641 -3.4999 0.0 0
M  V30 21 C -2.598 -1.9999 0.0 0
M  V30 22 C -2.098 -2.866 0.0 0
M  V30 23 C -3.4641 -2.4999 0.0 0
M  V30 24 C -3.098 -1.1339 0.0 0
M  V30 END ATOM
M  V30 BEGIN BOND
M  V30 1 1 1 2
M  V30 2 1 1 3
M  V30 3 1 1 4
M  V30 4 1 2 5
M  V30 5 1 3 6
M  V30 6 1 5 7
M  V30 7 2 5 8
M  V30 8 2 6 9
M  V30 9 1 6 10
M  V30 10 1 7 11
M  V30 11 2 7 12
M  V30 12 1 8 13
M  V30 13 1 9 14
M  V30 14 2 10 15
M  V30 15 1 11 16
M  V30 16 2 11 17
M  V30 17 1 12 18
M  V30 18 2 14 19
M  V30 19 1 17 20
M  V30 20 1 19 21
M  V30 21 1 21 22
M  V30 22 1 21 23
M  V30 23 1 21 24
M  V30 24 2 13 16
M  V30 25 1 15 19
M  V30 26 2 18 20
M  V30 END BOND
M  V30 END CTAB
M  END
>  <Molecule Name>


>  <status>
-

>  <cas>
101828-21-1

>  <name>
BUTENAFINE

>  <ID>
747

>  <Smiles>
CC(C)(C)c1ccc(CN(C)Cc2cccc3ccccc23)cc1

$$$$

Actelion Java MolfileCreator 2.0

  0  0  0  0  0  0              0 V3000
M  V30 BEGIN CTAB
M  V30 COUNTS 31 33 0 0 0
M  V30 BEGIN ATOM
M  V30 1 O 9.0007 1.1939 0.0 0
M  V30 2 C 8.0496 0.8848 0.0 0
M  V30 3 O 7.3065 1.554 0.0 0 CHG=-1
M  V30 4 C 7.8417 -0.0932 0.0 0 CFG=1
M  V30 5 N 6.9282 -0.5 0.0 0
M  V30 6 C 8.5108 -0.8364 0.0 0
M  V30 7 C 6.0621 0.0 0.0 0
M  V30 8 C 7.0327 -1.4945 0.0 0 CFG=2
M  V30 9 C 8.0108 -1.7024 0.0 0 CFG=2
M  V30 10 O 6.0621 0.9999 0.0 0
M  V30 11 C 5.1961 -0.5 0.0 0 CFG=1
M  V30 12 C 6.3636 -2.2376 0.0 0
M  V30 13 C 8.3198 -2.6534 0.0 0
M  V30 14 N 4.3301 0.0 0.0 0
M  V30 15 C 5.1961 -1.4999 0.0 0
M  V30 16 C 6.6726 -3.1887 0.0 0
M  V30 17 C 7.6507 -3.3966 0.0 0
M  V30 18 C 3.4641 -0.5 0.0 0 CFG=2
M  V30 19 C 2.598 0.0 0.0 0
M  V30 20 C 3.4641 -1.5 0.0 0
M  V30 21 O 2.598 1.0 0.0 0
M  V30 22 O 1.732 -0.5 0.0 0
M  V30 23 C 2.598 -2.0 0.0 0
M  V30 24 C 0.866 0.0 0.0 0
M  V30 25 C 2.598 -3.0 0.0 0
M  V30 26 C 0.0 -0.5 0.0 0
M  V30 27 C 1.732 -3.4999 0.0 0
M  V30 28 C 3.4641 -3.5 0.0 0
M  V30 29 C 1.732 -4.5 0.0 0
M  V30 30 C 3.4641 -4.5 0.0 0
M  V30 31 C 2.598 -5.0 0.0 0
M  V30 END ATOM
M  V30 BEGIN BOND
M  V30 1 2 1 2
M  V30 2 1 2 3
M  V30 3 1 4 2 CFG=3
M  V30 4 1 4 5
M  V30 5 1 4 6
M  V30 6 1 5 7
M  V30 7 1 8 5 CFG=3
M  V30 8 1 9 6 CFG=1
M  V30 9 2 7 10
M  V30 10 1 11 7
M  V30 11 1 8 12
M  V30 12 1 9 13
M  V30 13 1 11 14 CFG=3
M  V30 14 1 11 15
M  V30 15 1 12 16
M  V30 16 1 13 17
M  V30 17 1 18 14 CFG=1
M  V30 18 1 18 19
M  V30 19 1 18 20
M  V30 20 2 19 21
M  V30 21 1 19 22
M  V30 22 1 20 23
M  V30 23 1 22 24
M  V30 24 1 23 25
M  V30 25 1 24 26
M  V30 26 2 25 27
M  V30 27 1 25 28
M  V30 28 1 27 29
M  V30 29 2 28 30
M  V30 30 2 29 31
M  V30 31 1 8 9
M  V30 32 1 16 17
M  V30 33 1 30 31
M  V30 END BOND
M  V30 BEGIN COLLECTION
M  V30 MDLV30/STERAC1 ATOMS=(5 4 8 9 11 18)
M  V30 END COLLECTION
M  V30 END CTAB
M  END
>  <Molecule Name>


>  <status>
-

>  <cas>
87679-37-6

>  <name>
TRANDOLAPRIL

>  <ID>
748

>  <Smiles>
CCOC([C@H](CCc1ccccc1)N[C@@H](C)C(N([C@@H](C1)C([O-])=O)[C@@H]2[C@@H]1CCCC2)=O)=O

$$$$

Actelion Java MolfileCreator 2.0

  0  0  0  0  0  0              0 V3000
M  V30 BEGIN CTAB
M  V30 COUNTS 37 40 0 0 0
M  V30 BEGIN ATOM
M  V30 1 O 13.1655 2.2803 0.0 0
M  V30 2 C 11.8489 1.5202 0.0 0
M  V30 3 O 11.8489 0.0 0.0 0 CHG=-1
M  V30 4 C 10.5324 2.2803 0.0 0
M  V30 5 C 9.2158 1.5202 0.0 0
M  V30 6 C 11.2925 3.5968 0.0 0
M  V30 7 C 9.7722 3.5968 0.0 0
M  V30 8 C 7.8993 2.2803 0.0 0
M  V30 9 C 9.2158 0.0 0.0 0
M  V30 10 C 6.5827 1.5202 0.0 0
M  V30 11 C 7.8993 -0.7601 0.0 0
M  V30 12 C 6.5827 0.0 0.0 0
M  V30 13 C 5.2662 -0.7601 0.0 0 CFG=1
M  V30 14 O 5.2662 -2.2803 0.0 0
M  V30 15 C 3.9496 0.0 0.0 0
M  V30 16 C 2.6331 -0.7601 0.0 0
M  V30 17 C 1.3165 0.0 0.0 0
M  V30 18 N 0.0 -0.7601 0.0 0
M  V30 19 C -1.3165 0.0 0.0 0
M  V30 20 C 0.0 -2.2803 0.0 0
M  V30 21 C -2.6331 -0.7601 0.0 0
M  V30 22 C -1.4127 -2.8711 0.0 0
M  V30 23 C -2.6331 -2.2803 0.0 0
M  V30 24 C -3.9496 -3.0404 0.0 0
M  V30 25 O -5.2662 -2.2803 0.0 0
M  V30 26 C -2.6331 -3.8005 0.0 0
M  V30 27 C -3.9496 -4.5606 0.0 0
M  V30 28 C -2.4431 -5.297 0.0 0
M  V30 29 C -1.055 -3.316 0.0 0
M  V30 30 C -5.2662 -5.3207 0.0 0
M  V30 31 C -3.0131 -5.3207 0.0 0
M  V30 32 C -1.3165 -6.0808 0.0 0
M  V30 33 C 0.0 -3.8005 0.0 0
M  V30 34 C -5.2662 -6.8409 0.0 0
M  V30 35 C -2.6331 -6.8409 0.0 0
M  V30 36 C 0.0 -5.3207 0.0 0
M  V30 37 C -3.9496 -7.6011 0.0 0
M  V30 END ATOM
M  V30 BEGIN BOND
M  V30 1 2 1 2
M  V30 2 1 2 3
M  V30 3 1 2 4
M  V30 4 1 4 5
M  V30 5 1 4 6
M  V30 6 1 4 7
M  V30 7 2 5 8
M  V30 8 1 5 9
M  V30 9 1 8 10
M  V30 10 2 9 11
M  V30 11 2 10 12
M  V30 12 1 13 12
M  V30 13 1 13 14 CFG=1
M  V30 14 1 13 15
M  V30 15 1 15 16
M  V30 16 1 16 17
M  V30 17 1 17 18
M  V30 18 1 18 19
M  V30 19 1 18 20
M  V30 20 1 19 21
M  V30 21 1 20 22
M  V30 22 1 21 23
M  V30 23 1 23 24
M  V30 24 1 24 25
M  V30 25 1 24 26
M  V30 26 1 24 27
M  V30 27 2 26 28
M  V30 28 1 26 29
M  V30 29 2 27 30
M  V30 30 1 27 31
M  V30 31 1 28 32
M  V30 32 2 29 33
M  V30 33 1 30 34
M  V30 34 2 31 35
M  V30 35 2 32 36
M  V30 36 2 34 37
M  V30 37 1 11 12
M  V30 38 1 22 23
M  V30 39 1 33 36
M  V30 40 1 35 37
M  V30 END BOND
M  V30 BEGIN COLLECTION
M  V30 MDLV30/STERAC1 ATOMS=(1 13)
M  V30 END COLLECTION
M  V30 END CTAB
M  END
>  <Molecule Name>


>  <status>
-

>  <cas>
138452-21-8

>  <name>
FEXOFENADINE

>  <ID>
749

>  <Smiles>
CC(C)(C([O-])=O)c1ccc(C(CCCN(CC2)CCC2C(c2ccccc2)(c2ccccc2)O)O)cc1

$$$$

Actelion Java MolfileCreator 2.0

  0  0  0  0  0  0              0 V3000
M  V30 BEGIN CTAB
M  V30 COUNTS 22 23 0 0 0
M  V30 BEGIN ATOM
M  V30 1 N 0.9993 -3.7235 0.0 0
M  V30 2 C 2.4482 -4.1117 0.0 0
M  V30 3 C 3.8971 -4.5 0.0 0
M  V30 4 C 3.8971 -3.0 0.0 0
M  V30 5 C 4.9577 -5.5606 0.0 0
M  V30 6 C 5.3459 -4.1117 0.0 0
M  V30 7 C 5.1961 -2.25 0.0 0
M  V30 8 C 2.598 -2.25 0.0 0
M  V30 9 C 5.1961 -0.75 0.0 0
M  V30 10 C 2.598 -0.75 0.0 0
M  V30 11 C 3.8971 0.0 0.0 0
M  V30 12 C 6.4952 0.0 0.0 0
M  V30 13 C 1.299 0.0 0.0 0
M  V30 14 C 6.8834 -1.4488 0.0 0
M  V30 15 C 6.8834 1.4488 0.0 0
M  V30 16 C 5.4345 1.0606 0.0 0
M  V30 17 N 0.0 -0.75 0.0 0
M  V30 18 N 7.2716 -2.8977 0.0 0
M  V30 19 N -1.3703 -0.1398 0.0 0
M  V30 20 C -0.1567 -2.2417 0.0 0
M  V30 21 C -2.374 -1.2546 0.0 0
M  V30 22 N -1.624 -2.5536 0.0 0
M  V30 END ATOM
M  V30 BEGIN BOND
M  V30 1 3 1 2
M  V30 2 1 2 3
M  V30 3 1 3 4
M  V30 4 1 3 5
M  V30 5 1 3 6
M  V30 6 2 4 7
M  V30 7 1 4 8
M  V30 8 1 7 9
M  V30 9 2 8 10
M  V30 10 2 9 11
M  V30 11 1 9 12
M  V30 12 1 10 13
M  V30 13 1 12 14
M  V30 14 1 12 15
M  V30 15 1 12 16
M  V30 16 1 13 17
M  V30 17 3 14 18
M  V30 18 1 17 19
M  V30 19 1 17 20
M  V30 20 2 19 21
M  V30 21 2 20 22
M  V30 22 1 10 11
M  V30 23 1 21 22
M  V30 END BOND
M  V30 END CTAB
M  END
>  <Molecule Name>


>  <status>
-

>  <cas>
120511-73-1

>  <name>
ANASTROZOLE

>  <ID>
750

>  <Smiles>
CC(C)(c1cc(Cn2ncnc2)cc(C(C)(C)C#N)c1)C#N

$$$$

Actelion Java MolfileCreator 2.0

  0  0  0  0  0  0              0 V3000
M  V30 BEGIN CTAB
M  V30 COUNTS 41 45 0 0 0
M  V30 BEGIN ATOM
M  V30 1 S 3.8971 0.0 0.0 0
M  V30 2 O 4.6471 1.299 0.0 0
M  V30 3 O 3.1471 1.299 0.0 0
M  V30 4 N 2.598 -0.75 0.0 0
M  V30 5 C 5.1961 -0.75 0.0 0
M  V30 6 C 1.299 0.0 0.0 0
M  V30 7 C 5.1961 -2.25 0.0 0
M  V30 8 C 6.4951 0.0 0.0 0
M  V30 9 O 1.299 1.5 0.0 0
M  V30 10 C 0.0 -0.75 0.0 0
M  V30 11 C 6.4951 -3.0 0.0 0
M  V30 12 C 3.8971 -3.0 0.0 0
M  V30 13 C 7.7942 -0.75 0.0 0
M  V30 14 C -1.299 0.0 0.0 0
M  V30 15 C 0.0 -2.25 0.0 0
M  V30 16 C 7.7942 -2.25 0.0 0
M  V30 17 C -2.598 -0.75 0.0 0
M  V30 18 C -1.299 -3.0 0.0 0
M  V30 19 O -3.8971 0.0 0.0 0
M  V30 20 C -2.598 -2.25 0.0 0
M  V30 21 C -5.1961 -0.75 0.0 0
M  V30 22 C -3.8971 -3.0 0.0 0
M  V30 23 C -3.8971 -4.5 0.0 0
M  V30 24 C -5.1106 -5.3816 0.0 0
M  V30 25 C -2.6835 -5.3816 0.0 0
M  V30 26 C -4.6471 -6.8082 0.0 0
M  V30 27 C -6.5778 -5.0698 0.0 0
M  V30 28 N -3.1471 -6.8082 0.0 0
M  V30 29 C -5.6508 -7.9229 0.0 0
M  V30 30 C -7.5815 -6.1845 0.0 0
M  V30 31 C -2.2654 -8.0217 0.0 0
M  V30 32 C -7.118 -7.6111 0.0 0
M  V30 33 N -9.0487 -5.8726 0.0 0
M  V30 34 C -10.0524 -6.9873 0.0 0
M  V30 35 O -9.5889 -8.4139 0.0 0
M  V30 36 O -11.5197 -6.6755 0.0 0
M  V30 37 C -12.5234 -7.7902 0.0 0
M  V30 38 C -14.0151 -7.6334 0.0 0
M  V30 39 C -12.2115 -9.2574 0.0 0
M  V30 40 C -14.6252 -9.0037 0.0 0
M  V30 41 C -13.5105 -10.0074 0.0 0
M  V30 END ATOM
M  V30 BEGIN BOND
M  V30 1 2 1 2
M  V30 2 2 1 3
M  V30 3 1 1 4
M  V30 4 1 1 5
M  V30 5 1 4 6
M  V30 6 2 5 7
M  V30 7 1 5 8
M  V30 8 2 6 9
M  V30 9 1 6 10
M  V30 10 1 7 11
M  V30 11 1 7 12
M  V30 12 2 8 13
M  V30 13 2 10 14
M  V30 14 1 10 15
M  V30 15 2 11 16
M  V30 16 1 14 17
M  V30 17 2 15 18
M  V30 18 1 17 19
M  V30 19 2 17 20
M  V30 20 1 19 21
M  V30 21 1 20 22
M  V30 22 1 22 23
M  V30 23 1 23 24
M  V30 24 2 23 25
M  V30 25 2 24 26
M  V30 26 1 24 27
M  V30 27 1 25 28
M  V30 28 1 26 29
M  V30 29 2 27 30
M  V30 30 1 28 31
M  V30 31 2 29 32
M  V30 32 1 30 33
M  V30 33 1 33 34
M  V30 34 2 34 35
M  V30 35 1 34 36
M  V30 36 1 36 37
M  V30 37 1 37 38
M  V30 38 1 37 39
M  V30 39 1 38 40
M  V30 40 1 39 41
M  V30 41 1 13 16
M  V30 42 1 18 20
M  V30 43 1 26 28
M  V30 44 1 30 32
M  V30 45 1 40 41
M  V30 END BOND
M  V30 END CTAB
M  END
>  <Molecule Name>


>  <status>
-

>  <cas>
107753-78-6

>  <name>
ZAFIRLUKAST

>  <ID>
751

>  <Smiles>
Cc(cccc1)c1S(NC(c1cc(OC)c(Cc2cn(C)c(cc3)c2cc3NC(OC2CCCC2)=O)cc1)=O)(=O)=O

$$$$

Actelion Java MolfileCreator 2.0

  0  0  0  0  0  0              0 V3000
M  V30 BEGIN CTAB
M  V30 COUNTS 67 72 0 0 0
M  V30 BEGIN ATOM
M  V30 1 O 10.3923 -0.5 0.0 0
M  V30 2 C 9.5262 0.0 0.0 0
M  V30 3 O 8.6602 -0.5 0.0 0
M  V30 4 C 9.5262 1.0 0.0 0
M  V30 5 C 7.7942 0.0 0.0 0
M  V30 6 C 10.3923 1.5 0.0 0
M  V30 7 C 6.9282 -0.5 0.0 0
M  V30 8 N 10.3923 2.5 0.0 0 CHG=1 CFG=2
M  V30 9 C 6.0621 0.0 0.0 0
M  V30 10 C 11.2583 3.0 0.0 0 CFG=1
M  V30 11 C 9.5262 3.0 0.0 0
M  V30 12 C 9.5262 2.0 0.0 0
M  V30 13 C 5.1961 -0.5 0.0 0
M  V30 14 C 11.2583 4.0 0.0 0
M  V30 15 C 12.1243 2.5 0.0 0
M  V30 16 C 9.5262 4.0 0.0 0
M  V30 17 C 4.3301 0.0 0.0 0
M  V30 18 C 10.3923 4.5 0.0 0
M  V30 19 C 12.1243 4.5 0.0 0
M  V30 20 C 12.9903 3.0 0.0 0
M  V30 21 O 3.4641 -0.5 0.0 0
M  V30 22 C 10.3923 5.5 0.0 0
M  V30 23 C 12.1243 5.4999 0.0 0
M  V30 24 C 13.8564 2.4999 0.0 0
M  V30 25 C 12.9903 3.9999 0.0 0
M  V30 26 C 2.598 0.0 0.0 0
M  V30 27 C 11.2583 6.0 0.0 0
M  V30 28 O 12.9903 5.9999 0.0 0
M  V30 29 C 14.7224 2.9999 0.0 0
M  V30 30 C 13.8564 4.4999 0.0 0
M  V30 31 O 2.598 1.0 0.0 0
M  V30 32 C 1.732 -0.5 0.0 0
M  V30 33 O 11.2583 6.9999 0.0 0
M  V30 34 C 12.9903 6.9999 0.0 0
M  V30 35 O 15.5884 2.4999 0.0 0
M  V30 36 C 14.7224 3.9999 0.0 0
M  V30 37 C 0.866 0.0 0.0 0
M  V30 38 C 10.3923 7.4999 0.0 0
M  V30 39 C 16.4544 2.9999 0.0 0
M  V30 40 O 15.5884 4.4999 0.0 0
M  V30 41 N 0.0 -0.5 0.0 0 CHG=1 CFG=2
M  V30 42 C 15.5884 5.4999 0.0 0
M  V30 43 C -0.866 0.0 0.0 0 CFG=1
M  V30 44 C 0.0 -1.4999 0.0 0
M  V30 45 C 0.866 -1.0 0.0 0
M  V30 46 C -1.732 -0.4999 0.0 0
M  V30 47 C -0.866 1.0 0.0 0
M  V30 48 C -0.866 -1.9999 0.0 0
M  V30 49 C -1.732 -1.4999 0.0 0
M  V30 50 C -2.598 0.0 0.0 0
M  V30 51 C -1.732 1.5 0.0 0
M  V30 52 C -2.598 -1.9999 0.0 0
M  V30 53 C -3.4641 -0.4999 0.0 0
M  V30 54 C -1.732 2.5 0.0 0
M  V30 55 C -2.598 1.0 0.0 0
M  V30 56 C -3.4641 -1.4999 0.0 0
M  V30 57 O -4.3301 0.0 0.0 0
M  V30 58 C -2.598 3.0 0.0 0
M  V30 59 C -3.4641 1.5 0.0 0
M  V30 60 O -4.3301 -1.9999 0.0 0
M  V30 61 C -5.1961 -0.4999 0.0 0
M  V30 62 O -2.598 4.0 0.0 0
M  V30 63 C -3.4641 2.5 0.0 0
M  V30 64 C -4.3301 -2.9999 0.0 0
M  V30 65 C -3.4641 4.5 0.0 0
M  V30 66 O -4.3301 3.0 0.0 0
M  V30 67 C -5.1961 2.5 0.0 0
M  V30 END ATOM
M  V30 BEGIN BOND
M  V30 1 2 1 2
M  V30 2 1 2 3
M  V30 3 1 2 4
M  V30 4 1 3 5
M  V30 5 1 4 6
M  V30 6 1 5 7
M  V30 7 1 8 6
M  V30 8 1 7 9
M  V30 9 1 10 8
M  V30 10 1 8 11
M  V30 11 1 8 12 CFG=3
M  V30 12 1 9 13
M  V30 13 1 10 14
M  V30 14 1 10 15 CFG=1
M  V30 15 1 11 16
M  V30 16 1 13 17
M  V30 17 2 14 18
M  V30 18 1 14 19
M  V30 19 1 15 20
M  V30 20 1 17 21
M  V30 21 1 18 22
M  V30 22 2 19 23
M  V30 23 2 20 24
M  V30 24 1 20 25
M  V30 25 1 21 26
M  V30 26 2 22 27
M  V30 27 1 23 28
M  V30 28 1 24 29
M  V30 29 2 25 30
M  V30 30 2 26 31
M  V30 31 1 26 32
M  V30 32 1 27 33
M  V30 33 1 28 34
M  V30 34 1 29 35
M  V30 35 2 29 36
M  V30 36 1 32 37
M  V30 37 1 33 38
M  V30 38 1 35 39
M  V30 39 1 36 40
M  V30 40 1 41 37
M  V30 41 1 40 42
M  V30 42 1 43 41
M  V30 43 1 41 44
M  V30 44 1 41 45 CFG=3
M  V30 45 1 43 46
M  V30 46 1 43 47 CFG=1
M  V30 47 1 44 48
M  V30 48 2 46 49
M  V30 49 1 46 50
M  V30 50 1 47 51
M  V30 51 1 49 52
M  V30 52 2 50 53
M  V30 53 2 51 54
M  V30 54 1 51 55
M  V30 55 2 52 56
M  V30 56 1 53 57
M  V30 57 1 54 58
M  V30 58 2 55 59
M  V30 59 1 56 60
M  V30 60 1 57 61
M  V30 61 1 58 62
M  V30 62 2 58 63
M  V30 63 1 60 64
M  V30 64 1 62 65
M  V30 65 1 63 66
M  V30 66 1 66 67
M  V30 67 1 16 18
M  V30 68 1 23 27
M  V30 69 1 30 36
M  V30 70 1 48 49
M  V30 71 1 53 56
M  V30 72 1 59 63
M  V30 END BOND
M  V30 BEGIN COLLECTION
M  V30 MDLV30/STERAC1 ATOMS=(4 8 10 41 43)
M  V30 END COLLECTION
M  V30 END CTAB
M  END
>  <Molecule Name>


>  <status>
-

>  <cas>
96946-41-7

>  <name>
CISATRACURIUM

>  <ID>
752

>  <Smiles>
C[N@+](CCC(OCCCCCOC(CC[N@@+](C)(CC1)[C@H](Cc(cc2)cc(OC)c2OC)c(cc2OC)c1cc2OC)=O)=O)(CC1)[C@H](Cc(cc2)cc(OC)c2OC)c(cc2OC)c1cc2OC

$$$$
_c001
Actelion Java MolfileCreator 2.0

  0  0  0  0  0  0              0 V3000
M  V30 BEGIN CTAB
M  V30 COUNTS 14 13 0 0 0
M  V30 BEGIN ATOM
M  V30 1 P 4.3301 0.0 0.0 0
M  V30 2 O 4.8301 -0.866 0.0 0
M  V30 3 O 5.1961 0.4999 0.0 0 CHG=-1
M  V30 4 O 3.8301 0.866 0.0 0 CHG=-1
M  V30 5 C 3.4641 -0.5 0.0 0
M  V30 6 P 3.4641 -1.5 0.0 0
M  V30 7 O 3.4641 0.5 0.0 0
M  V30 8 C 2.598 0.0 0.0 0
M  V30 9 O 2.4641 -1.5 0.0 0
M  V30 10 O 3.4641 -2.5 0.0 0 CHG=-1
M  V30 11 O 4.4641 -1.4999 0.0 0 CHG=-1
M  V30 12 C 1.732 -0.5 0.0 0
M  V30 13 C 0.866 0.0 0.0 0
M  V30 14 N 0.0 -0.5 0.0 0
M  V30 END ATOM
M  V30 BEGIN BOND
M  V30 1 2 1 2
M  V30 2 1 1 3
M  V30 3 1 1 4
M  V30 4 1 1 5
M  V30 5 1 5 6
M  V30 6 1 5 7
M  V30 7 1 5 8
M  V30 8 2 6 9
M  V30 9 1 6 10
M  V30 10 1 6 11
M  V30 11 1 8 12
M  V30 12 1 12 13
M  V30 13 1 13 14
M  V30 END BOND
M  V30 END CTAB
M  END
>  <Molecule Name>
_c001

>  <status>
-

>  <cas>
129318-43-0

>  <name>
ALENDRONATE

>  <ID>
753

>  <Smiles>
NCCCC(O)(P([O-])([O-])=O)P([O-])([O-])=O

$$$$

Actelion Java MolfileCreator 2.0

  0  0  0  0  0  0              0 V3000
M  V30 BEGIN CTAB
M  V30 COUNTS 15 16 0 0 0
M  V30 BEGIN ATOM
M  V30 1 S 3.9683 -0.1398 0.0 0
M  V30 2 C 2.598 -0.75 0.0 0 CFG=1
M  V30 3 C 4.972 -1.2546 0.0 0
M  V30 4 O 2.7548 -2.2417 0.0 0
M  V30 5 C 1.299 0.0 0.0 0
M  V30 6 C 4.222 -2.5536 0.0 0 CFG=2
M  V30 7 O 0.0 -0.75 0.0 0
M  V30 8 N 4.8321 -3.9239 0.0 0
M  V30 9 C 3.9505 -5.1374 0.0 0
M  V30 10 C 6.3239 -4.0807 0.0 0
M  V30 11 O 2.4587 -4.9807 0.0 0
M  V30 12 N 4.5606 -6.5078 0.0 0
M  V30 13 C 6.934 -5.451 0.0 0
M  V30 14 C 6.0524 -6.6646 0.0 0
M  V30 15 N 6.6625 -8.0349 0.0 0
M  V30 END ATOM
M  V30 BEGIN BOND
M  V30 1 1 2 1
M  V30 2 1 1 3
M  V30 3 1 2 4
M  V30 4 1 2 5 CFG=1
M  V30 5 1 6 3
M  V30 6 1 5 7
M  V30 7 1 6 8 CFG=1
M  V30 8 1 8 9
M  V30 9 1 8 10
M  V30 10 2 9 11
M  V30 11 1 9 12
M  V30 12 2 10 13
M  V30 13 2 12 14
M  V30 14 1 14 15
M  V30 15 1 4 6
M  V30 16 1 13 14
M  V30 END BOND
M  V30 BEGIN COLLECTION
M  V30 MDLV30/STERAC1 ATOMS=(2 2 6)
M  V30 END COLLECTION
M  V30 END CTAB
M  END
>  <Molecule Name>


>  <status>
-

>  <cas>
134678-17-4

>  <name>
LAMIVUDINE

>  <ID>
754

>  <Smiles>
NC(C=CN1[C@H]2O[C@@H](CO)SC2)=NC1=O

$$$$

Actelion Java MolfileCreator 2.0

  0  0  0  0  0  0              0 V3000
M  V30 BEGIN CTAB
M  V30 COUNTS 43 49 0 0 0
M  V30 BEGIN ATOM
M  V30 1 O 9.1833 -0.2044 0.0 0
M  V30 2 C 8.5955 0.6045 0.0 0
M  V30 3 N 7.601 0.5 0.0 0
M  V30 4 C 9.0022 1.518 0.0 0
M  V30 5 C 7.0132 1.309 0.0 0
M  V30 6 C 7.0132 -0.309 0.0 0
M  V30 7 C 8.4144 2.327 0.0 0
M  V30 8 C 9.9968 1.6226 0.0 0
M  V30 9 C 6.0621 1.0 0.0 0
M  V30 10 C 7.4199 2.2225 0.0 0
M  V30 11 C 6.0621 0.0 0.0 0
M  V30 12 C 8.8212 3.2406 0.0 0 CFG=2
M  V30 13 O 10.4035 2.5361 0.0 0
M  V30 14 N 5.1961 1.5 0.0 0
M  V30 15 C 5.1961 -0.4999 0.0 0
M  V30 16 O 9.2279 4.1541 0.0 0
M  V30 17 C 9.8157 3.3451 0.0 0
M  V30 18 C 8.2334 4.0496 0.0 0
M  V30 19 C 4.3301 1.0 0.0 0
M  V30 20 C 4.3301 0.0 0.0 0
M  V30 21 C 5.1961 -1.4999 0.0 0
M  V30 22 O 10.2224 4.2587 0.0 0
M  V30 23 C 8.6401 4.9631 0.0 0
M  V30 24 C 3.4641 1.4999 0.0 0
M  V30 25 C 3.4641 -0.4999 0.0 0
M  V30 26 C 6.0621 -1.9999 0.0 0
M  V30 27 C 2.598 0.9999 0.0 0
M  V30 28 C 2.598 0.0 0.0 0
M  V30 29 O 1.732 -0.5 0.0 0
M  V30 30 C 0.866 0.0 0.0 0
M  V30 31 O 0.866 1.0 0.0 0
M  V30 32 N 0.0 -0.5 0.0 0
M  V30 33 C -0.866 0.0 0.0 0
M  V30 34 C 0.0 -1.4999 0.0 0
M  V30 35 C -1.732 -0.4999 0.0 0
M  V30 36 C -0.866 -1.9999 0.0 0
M  V30 37 C -1.732 -1.4999 0.0 0
M  V30 38 N -2.598 -1.9999 0.0 0
M  V30 39 C -3.4641 -1.4999 0.0 0
M  V30 40 C -2.598 -2.9999 0.0 0
M  V30 41 C -4.3301 -1.9999 0.0 0
M  V30 42 C -3.4641 -3.4999 0.0 0
M  V30 43 C -4.3301 -2.9999 0.0 0
M  V30 END ATOM
M  V30 BEGIN BOND
M  V30 1 2 1 2
M  V30 2 1 2 3
M  V30 3 1 2 4
M  V30 4 1 3 5
M  V30 5 1 3 6
M  V30 6 2 4 7
M  V30 7 1 4 8
M  V30 8 1 5 9
M  V30 9 2 5 10
M  V30 10 1 6 11
M  V30 11 1 12 7
M  V30 12 1 8 13
M  V30 13 2 9 14
M  V30 14 2 11 15
M  V30 15 1 12 16 CFG=3
M  V30 16 1 12 17
M  V30 17 1 12 18
M  V30 18 1 14 19
M  V30 19 1 15 20
M  V30 20 1 15 21
M  V30 21 2 17 22
M  V30 22 1 18 23
M  V30 23 2 19 24
M  V30 24 2 20 25
M  V30 25 1 21 26
M  V30 26 1 24 27
M  V30 27 1 25 28
M  V30 28 1 28 29
M  V30 29 1 29 30
M  V30 30 2 30 31
M  V30 31 1 30 32
M  V30 32 1 32 33
M  V30 33 1 32 34
M  V30 34 1 33 35
M  V30 35 1 34 36
M  V30 36 1 35 37
M  V30 37 1 37 38
M  V30 38 1 38 39
M  V30 39 1 38 40
M  V30 40 1 39 41
M  V30 41 1 40 42
M  V30 42 1 41 43
M  V30 43 1 7 10
M  V30 44 1 9 11
M  V30 45 1 13 17
M  V30 46 1 19 20
M  V30 47 2 27 28
M  V30 48 1 36 37
M  V30 49 1 42 43
M  V30 END BOND
M  V30 BEGIN COLLECTION
M  V30 MDLV30/STERAC1 ATOMS=(1 12)
M  V30 END COLLECTION
M  V30 END CTAB
M  END
>  <Molecule Name>


>  <status>
-

>  <cas>
97682-44-5

>  <name>
IRINOTECAN

>  <ID>
755

>  <Smiles>
CCC(C(C=C1N2Cc3c(CC)c4cc(OC(N(CC5)CCC5N5CCCCC5)=O)ccc4nc13)=C(CO1)C2=O)(C1=O)O

$$$$

Actelion Java MolfileCreator 2.0

  0  0  0  0  0  0              0 V3000
M  V30 BEGIN CTAB
M  V30 COUNTS 8 7 0 0 0
M  V30 BEGIN ATOM
M  V30 1 O 2.598 0.0 0.0 0
M  V30 2 C 1.732 -0.5 0.0 0
M  V30 3 O 1.732 -1.5 0.0 0 CHG=-1
M  V30 4 C 0.866 0.0 0.0 0
M  V30 5 N 0.0 -0.5 0.0 0 CHG=1
M  V30 6 C 0.4999 -1.366 0.0 0
M  V30 7 C -0.866 -0.9999 0.0 0
M  V30 8 C -0.4999 0.366 0.0 0
M  V30 END ATOM
M  V30 BEGIN BOND
M  V30 1 2 1 2
M  V30 2 1 2 3
M  V30 3 1 2 4
M  V30 4 1 4 5
M  V30 5 1 5 6
M  V30 6 1 5 7
M  V30 7 1 5 8
M  V30 END BOND
M  V30 END CTAB
M  END
>  <Molecule Name>


>  <status>
-

>  <cas>
107-43-7

>  <name>
BETAINE

>  <ID>
756

>  <Smiles>
C[N+](C)(C)CC([O-])=O

$$$$

Actelion Java MolfileCreator 2.0

  0  0  0  0  0  0              0 V3000
M  V30 BEGIN CTAB
M  V30 COUNTS 28 29 0 0 0
M  V30 BEGIN ATOM
M  V30 1 S 8.6602 -0.5 0.0 0
M  V30 2 O 8.1602 -1.366 0.0 0
M  V30 3 O 9.1602 0.366 0.0 0
M  V30 4 N 9.5262 -1.0 0.0 0
M  V30 5 C 7.7942 0.0 0.0 0
M  V30 6 C 7.7942 0.9999 0.0 0
M  V30 7 C 6.9282 -0.5 0.0 0
M  V30 8 O 8.6602 1.4999 0.0 0
M  V30 9 C 6.9282 1.4999 0.0 0
M  V30 10 C 6.0621 0.0 0.0 0
M  V30 11 C 8.6602 2.4999 0.0 0
M  V30 12 C 6.0621 1.0 0.0 0
M  V30 13 C 5.1961 -0.5 0.0 0
M  V30 14 C 4.3301 0.0 0.0 0 CFG=1
M  V30 15 N 3.4641 -0.5 0.0 0
M  V30 16 C 4.3301 1.0 0.0 0
M  V30 17 C 2.598 0.0 0.0 0
M  V30 18 C 1.732 -0.5 0.0 0
M  V30 19 O 0.866 0.0 0.0 0
M  V30 20 C 0.0 -0.5 0.0 0
M  V30 21 C -0.866 0.0 0.0 0
M  V30 22 C 0.0 -1.4999 0.0 0
M  V30 23 O -0.866 1.0 0.0 0
M  V30 24 C -1.732 -0.4999 0.0 0
M  V30 25 C -0.866 -1.9999 0.0 0
M  V30 26 C 0.0 1.5 0.0 0
M  V30 27 C -1.732 -1.4999 0.0 0
M  V30 28 C 0.0 2.5 0.0 0
M  V30 END ATOM
M  V30 BEGIN BOND
M  V30 1 2 1 2
M  V30 2 2 1 3
M  V30 3 1 1 4
M  V30 4 1 1 5
M  V30 5 2 5 6
M  V30 6 1 5 7
M  V30 7 1 6 8
M  V30 8 1 6 9
M  V30 9 2 7 10
M  V30 10 1 8 11
M  V30 11 2 9 12
M  V30 12 1 10 13
M  V30 13 1 14 13
M  V30 14 1 14 15 CFG=1
M  V30 15 1 14 16
M  V30 16 1 15 17
M  V30 17 1 17 18
M  V30 18 1 18 19
M  V30 19 1 19 20
M  V30 20 2 20 21
M  V30 21 1 20 22
M  V30 22 1 21 23
M  V30 23 1 21 24
M  V30 24 2 22 25
M  V30 25 1 23 26
M  V30 26 2 24 27
M  V30 27 1 26 28
M  V30 28 1 10 12
M  V30 29 1 25 27
M  V30 END BOND
M  V30 BEGIN COLLECTION
M  V30 MDLV30/STERAC1 ATOMS=(1 14)
M  V30 END COLLECTION
M  V30 END CTAB
M  END
>  <Molecule Name>


>  <status>
-

>  <cas>
106133-20-4

>  <name>
TAMSULOSIN

>  <ID>
757

>  <Smiles>
CCOc(cccc1)c1OCCNC(C)Cc(cc1)cc(S(N)(=O)=O)c1OC

$$$$

Actelion Java MolfileCreator 2.0

  0  0  0  0  0  0              0 V3000
M  V30 BEGIN CTAB
M  V30 COUNTS 32 35 0 0 0
M  V30 BEGIN ATOM
M  V30 1 Cl 2.359 -5.3798 0.0 0
M  V30 2 C 2.4375 -3.8818 0.0 0
M  V30 3 O 1.1795 -3.0649 0.0 0
M  V30 4 C 1.258 -1.5669 0.0 0
M  V30 5 O 2.5945 -0.8859 0.0 0
M  V30 6 C 0.0 -0.75 0.0 0 CFG=2
M  V30 7 O 1.299 0.0 0.0 0
M  V30 8 C -1.3703 -0.1398 0.0 0 CFG=2
M  V30 9 C -0.1567 -2.2417 0.0 0
M  V30 10 C 1.299 1.5 0.0 0
M  V30 11 C -2.374 -1.2546 0.0 0 CFG=1
M  V30 12 C -1.8338 1.2866 0.0 0
M  V30 13 C -0.2556 0.8638 0.0 0
M  V30 14 C -1.624 -2.5536 0.0 0
M  V30 15 O 0.0 2.25 0.0 0
M  V30 16 O 2.598 2.25 0.0 0
M  V30 17 C -3.8412 -0.9427 0.0 0 CFG=1
M  V30 18 C -3.301 1.5985 0.0 0 CFG=1
M  V30 19 C 2.598 3.75 0.0 0
M  V30 20 C -4.3047 0.4838 0.0 0 CFG=2
M  V30 21 C -4.8449 -2.0574 0.0 0
M  V30 22 O -3.7645 3.0251 0.0 0
M  V30 23 C 3.8971 4.5 0.0 0
M  V30 24 C -5.7719 0.7957 0.0 0 CFG=2
M  V30 25 C -6.3121 -1.7455 0.0 0
M  V30 26 C -6.7756 -0.319 0.0 0
M  V30 27 C -6.2355 2.2222 0.0 0
M  V30 28 C -4.7682 1.9104 0.0 0
M  V30 29 C -8.2428 -0.0071 0.0 0
M  V30 30 C -7.7027 2.5341 0.0 0
M  V30 31 C -8.7064 1.4194 0.0 0
M  V30 32 O -10.1736 1.7313 0.0 0
M  V30 END ATOM
M  V30 BEGIN BOND
M  V30 1 1 1 2
M  V30 2 1 2 3
M  V30 3 1 3 4
M  V30 4 2 4 5
M  V30 5 1 6 4
M  V30 6 1 6 7 CFG=3
M  V30 7 1 8 6
M  V30 8 1 6 9
M  V30 9 1 7 10
M  V30 10 1 11 8
M  V30 11 1 8 12
M  V30 12 1 8 13 CFG=1
M  V30 13 1 9 14
M  V30 14 2 10 15
M  V30 15 1 10 16
M  V30 16 1 17 11
M  V30 17 1 18 12
M  V30 18 1 16 19
M  V30 19 1 20 17 CFG=1
M  V30 20 1 17 21 CFG=3
M  V30 21 1 18 22 CFG=1
M  V30 22 1 19 23
M  V30 23 1 24 20
M  V30 24 1 21 25
M  V30 25 1 24 26
M  V30 26 1 24 27
M  V30 27 1 24 28 CFG=1
M  V30 28 2 26 29
M  V30 29 2 27 30
M  V30 30 1 29 31
M  V30 31 2 31 32
M  V30 32 1 11 14 CFG=1
M  V30 33 1 18 20
M  V30 34 1 25 26
M  V30 35 1 30 31
M  V30 END BOND
M  V30 BEGIN COLLECTION
M  V30 MDLV30/STERAC1 ATOMS=(7 6 8 11 17 18 20 24)
M  V30 END COLLECTION
M  V30 END CTAB
M  END
>  <Molecule Name>


>  <status>
-

>  <cas>
82034-46-6

>  <name>
LOTEPREDNOL ETABONATE

>  <ID>
758

>  <Smiles>
CCOC(O[C@](CC1)([C@@](C)(C[C@@H]2O)[C@@H]1[C@H](CC1)[C@H]2[C@@](C)(C=C2)C1=CC2=O)C(OCCl)=O)=O

$$$$

Actelion Java MolfileCreator 2.0

  0  0  0  0  0  0              0 V3000
M  V30 BEGIN CTAB
M  V30 COUNTS 22 25 0 0 0
M  V30 BEGIN ATOM
M  V30 1 S 2.6693 -0.6101 0.0 0
M  V30 2 C 3.673 0.5046 0.0 0
M  V30 3 C 1.299 0.0 0.0 0
M  V30 4 N 5.1562 0.281 0.0 0
M  V30 5 C 2.923 1.8036 0.0 0
M  V30 6 C 1.4558 1.4917 0.0 0
M  V30 7 C 0.0 -0.75 0.0 0
M  V30 8 C 6.2558 1.3013 0.0 0
M  V30 9 C 3.471 3.1999 0.0 0
M  V30 10 C 6.1437 2.7971 0.0 0
M  V30 11 C 7.6073 0.6504 0.0 0
M  V30 12 N 2.4508 4.2995 0.0 0
M  V30 13 N 4.9044 3.642 0.0 0
M  V30 14 C 7.3831 3.642 0.0 0
M  V30 15 C 8.8466 1.4954 0.0 0
M  V30 16 C 2.8929 5.7328 0.0 0
M  V30 17 C 0.9884 3.9657 0.0 0
M  V30 18 C 8.7345 2.9912 0.0 0
M  V30 19 C 1.8726 6.8324 0.0 0
M  V30 20 C -0.0318 5.0653 0.0 0
M  V30 21 N 0.4102 6.4986 0.0 0
M  V30 22 C -0.6099 7.5982 0.0 0
M  V30 END ATOM
M  V30 BEGIN BOND
M  V30 1 1 1 2
M  V30 2 1 1 3
M  V30 3 2 2 4
M  V30 4 1 2 5
M  V30 5 2 3 6
M  V30 6 1 3 7
M  V30 7 1 4 8
M  V30 8 2 5 9
M  V30 9 2 8 10
M  V30 10 1 8 11
M  V30 11 1 9 12
M  V30 12 1 9 13
M  V30 13 1 10 14
M  V30 14 2 11 15
M  V30 15 1 12 16
M  V30 16 1 12 17
M  V30 17 2 14 18
M  V30 18 1 16 19
M  V30 19 1 17 20
M  V30 20 1 19 21
M  V30 21 1 21 22
M  V30 22 1 5 6
M  V30 23 1 10 13
M  V30 24 1 15 18
M  V30 25 1 20 21
M  V30 END BOND
M  V30 END CTAB
M  END
>  <Molecule Name>


>  <status>
-

>  <cas>
132539-06-1

>  <name>
OLANZAPINE

>  <ID>
759

>  <Smiles>
CC(SC1=Nc(cccc2)c2N2)=CC1=C2N1CCN(C)CC1

$$$$
Molecule-1
Actelion Java MolfileCreator 2.0

  0  0  0  0  0  0              0 V3000
M  V30 BEGIN CTAB
M  V30 COUNTS 22 23 0 0 0
M  V30 BEGIN ATOM
M  V30 1 S 6.9757 -1.5932 0.0 0
M  V30 2 C 6.0621 -2.0 0.0 0
M  V30 3 C 7.6448 -2.3364 0.0 0
M  V30 4 N 6.1667 -2.9945 0.0 0
M  V30 5 C 5.1961 -1.4999 0.0 0
M  V30 6 C 7.1448 -3.2024 0.0 0
M  V30 7 C 8.6393 -2.2318 0.0 0
M  V30 8 C 5.1961 -0.5 0.0 0
M  V30 9 C 4.3301 -1.9999 0.0 0
M  V30 10 C 7.5515 -4.1159 0.0 0
M  V30 11 O 9.2271 -3.0408 0.0 0
M  V30 12 O 9.0461 -1.3183 0.0 0 CHG=-1
M  V30 13 C 4.3301 0.0 0.0 0
M  V30 14 C 3.4641 -1.5 0.0 0
M  V30 15 C 4.3301 1.0 0.0 0
M  V30 16 C 3.4641 -0.5 0.0 0
M  V30 17 N 4.3301 2.0 0.0 0
M  V30 18 O 2.598 0.0 0.0 0
M  V30 19 C 1.732 -0.5 0.0 0
M  V30 20 C 0.866 0.0 0.0 0
M  V30 21 C 0.866 1.0 0.0 0
M  V30 22 C 0.0 -0.5 0.0 0
M  V30 END ATOM
M  V30 BEGIN BOND
M  V30 1 1 1 2
M  V30 2 1 1 3
M  V30 3 2 2 4
M  V30 4 1 2 5
M  V30 5 2 3 6
M  V30 6 1 3 7
M  V30 7 2 5 8
M  V30 8 1 5 9
M  V30 9 1 6 10
M  V30 10 2 7 11
M  V30 11 1 7 12
M  V30 12 1 8 13
M  V30 13 2 9 14
M  V30 14 1 13 15
M  V30 15 2 13 16
M  V30 16 3 15 17
M  V30 17 1 16 18
M  V30 18 1 18 19
M  V30 19 1 19 20
M  V30 20 1 20 21
M  V30 21 1 20 22
M  V30 22 1 4 6
M  V30 23 1 14 16
M  V30 END BOND
M  V30 END CTAB
M  END
>  <Molecule Name>
Molecule-1

>  <status>
-

>  <cas>
144060-53-7

>  <name>
FEBUXOSTAT

>  <ID>
760

>  <Smiles>
CC(C)COc(ccc(-c1nc(C)c(C([O-])=O)s1)c1)c1C#N

$$$$
_c001
Actelion Java MolfileCreator 2.0

  0  0  0  0  0  0              0 V3000
M  V30 BEGIN CTAB
M  V30 COUNTS 31 32 0 0 0
M  V30 BEGIN ATOM
M  V30 1 O 5.1961 2.5 0.0 0
M  V30 2 C 4.3301 3.0 0.0 0
M  V30 3 O 4.3301 4.0 0.0 0
M  V30 4 C 3.4641 2.5 0.0 0
M  V30 5 C 5.1961 4.5 0.0 0
M  V30 6 C 3.4641 1.5 0.0 0
M  V30 7 C 5.1961 5.5 0.0 0
M  V30 8 C 6.0621 4.0 0.0 0
M  V30 9 C 2.598 1.0 0.0 0
M  V30 10 C 2.598 0.0 0.0 0
M  V30 11 C 1.732 -0.5 0.0 0
M  V30 12 C 0.866 0.0 0.0 0
M  V30 13 C 0.0 -0.5 0.0 0 CFG=1
M  V30 14 C -0.9135 -0.0932 0.0 0 CFG=1
M  V30 15 C -0.1045 -1.4945 0.0 0 CFG=2
M  V30 16 O -1.1214 0.8848 0.0 0
M  V30 17 C -1.5826 -0.8364 0.0 0
M  V30 18 C -1.0826 -1.7024 0.0 0 CFG=1
M  V30 19 C 0.6386 -2.1636 0.0 0
M  V30 20 O -1.4894 -2.6159 0.0 0
M  V30 21 C 1.5896 -1.8546 0.0 0
M  V30 22 C 2.3328 -2.5237 0.0 0 CFG=1
M  V30 23 O 2.1249 -3.5019 0.0 0
M  V30 24 C 3.2838 -2.2147 0.0 0
M  V30 25 C 4.027 -2.8838 0.0 0
M  V30 26 C 4.978 -2.5748 0.0 0
M  V30 27 C 5.7212 -3.2439 0.0 0
M  V30 28 C 5.1859 -1.5967 0.0 0
M  V30 29 C 6.6722 -2.9349 0.0 0
M  V30 30 C 6.137 -1.2876 0.0 0
M  V30 31 C 6.8801 -1.9568 0.0 0
M  V30 END ATOM
M  V30 BEGIN BOND
M  V30 1 2 1 2
M  V30 2 1 2 3
M  V30 3 1 2 4
M  V30 4 1 3 5
M  V30 5 1 4 6
M  V30 6 1 5 7
M  V30 7 1 5 8
M  V30 8 1 6 9
M  V30 9 1 9 10
M  V30 10 2 10 11
M  V30 11 1 11 12
M  V30 12 1 13 12 CFG=3
M  V30 13 1 14 13
M  V30 14 1 15 13
M  V30 15 1 14 16 CFG=3
M  V30 16 1 14 17
M  V30 17 1 18 15
M  V30 18 1 15 19 CFG=1
M  V30 19 1 18 20 CFG=3
M  V30 20 1 19 21
M  V30 21 1 22 21
M  V30 22 1 22 23 CFG=3
M  V30 23 1 22 24
M  V30 24 1 24 25
M  V30 25 1 25 26
M  V30 26 2 26 27
M  V30 27 1 26 28
M  V30 28 1 27 29
M  V30 29 2 28 30
M  V30 30 2 29 31
M  V30 31 1 17 18
M  V30 32 1 30 31
M  V30 END BOND
M  V30 BEGIN COLLECTION
M  V30 MDLV30/STERAC1 ATOMS=(5 13 14 15 18 22)
M  V30 END COLLECTION
M  V30 END CTAB
M  END
>  <Molecule Name>
_c001

>  <status>
-

>  <cas>
130209-82-4

>  <name>
LATANOPROST

>  <ID>
761

>  <Smiles>
CC(C)OC(CCC/C=C\C[C@H]([C@@H](CC[C@H](CCc1ccccc1)O)[C@@H](C1)O)[C@H]1O)=O

$$$$

Actelion Java MolfileCreator 2.0

  0  0  0  0  0  0              0 V3000
M  V30 BEGIN CTAB
M  V30 COUNTS 15 16 0 0 0
M  V30 BEGIN ATOM
M  V30 1 S 2.8059 -2.9781 0.0 0
M  V30 2 C 3.8005 -3.0826 0.0 0
M  V30 3 C 2.598 -1.9999 0.0 0
M  V30 4 N 4.2072 -2.1691 0.0 0
M  V30 5 N 4.3005 -3.9487 0.0 0
M  V30 6 C 3.4641 -1.4999 0.0 0
M  V30 7 C 1.732 -1.5 0.0 0
M  V30 8 C 3.4641 -0.4999 0.0 0
M  V30 9 C 1.732 -0.5 0.0 0
M  V30 10 C 2.598 0.0 0.0 0
M  V30 11 O 0.866 0.0 0.0 0
M  V30 12 C 0.0 -0.5 0.0 0
M  V30 13 F 0.4999 -1.366 0.0 0
M  V30 14 F -0.866 -0.9999 0.0 0
M  V30 15 F -0.4999 0.366 0.0 0
M  V30 END ATOM
M  V30 BEGIN BOND
M  V30 1 1 1 2
M  V30 2 1 1 3
M  V30 3 2 2 4
M  V30 4 1 2 5
M  V30 5 2 3 6
M  V30 6 1 3 7
M  V30 7 1 6 8
M  V30 8 2 7 9
M  V30 9 2 8 10
M  V30 10 1 9 11
M  V30 11 1 11 12
M  V30 12 1 12 13
M  V30 13 1 12 14
M  V30 14 1 12 15
M  V30 15 1 4 6
M  V30 16 1 9 10
M  V30 END BOND
M  V30 END CTAB
M  END
>  <Molecule Name>


>  <status>
-

>  <cas>
1744-22-5

>  <name>
RILUZOLE

>  <ID>
762

>  <Smiles>
Nc1nc(ccc(OC(F)(F)F)c2)c2s1

$$$$

Actelion Java MolfileCreator 2.0

  0  0  0  0  0  0              0 V3000
M  V30 BEGIN CTAB
M  V30 COUNTS 25 27 0 0 0
M  V30 BEGIN ATOM
M  V30 1 S 15.5884 -6.75 0.0 0
M  V30 2 C 14.2894 -6.0 0.0 0
M  V30 3 C 15.5884 -8.25 0.0 0
M  V30 4 C 12.9904 -6.75 0.0 0
M  V30 5 C 14.2894 -4.5 0.0 0
M  V30 6 C 14.2894 -9.0 0.0 0
M  V30 7 C 11.6913 -6.0 0.0 0
M  V30 8 C 12.9904 -8.25 0.0 0
M  V30 9 C 12.9904 -3.75 0.0 0
M  V30 10 C 11.6913 -4.5 0.0 0
M  V30 11 C 11.4904 -8.2499 0.0 0
M  V30 12 C 12.2404 -9.549 0.0 0
M  V30 13 C 10.3923 -3.75 0.0 0
M  V30 14 C 9.0932 -3.0 0.0 0
M  V30 15 C 7.7942 -2.25 0.0 0
M  V30 16 N 7.7942 -0.75 0.0 0
M  V30 17 C 6.4952 -3.0 0.0 0
M  V30 18 C 6.4952 0.0 0.0 0
M  V30 19 C 5.1961 -2.25 0.0 0
M  V30 20 C 5.1961 -0.75 0.0 0
M  V30 21 C 3.8971 0.0 0.0 0
M  V30 22 O 3.8971 1.5 0.0 0
M  V30 23 O 2.598 -0.75 0.0 0
M  V30 24 C 1.299 0.0 0.0 0
M  V30 25 C 0.0 -0.75 0.0 0
M  V30 END ATOM
M  V30 BEGIN BOND
M  V30 1 1 1 2
M  V30 2 1 1 3
M  V30 3 2 2 4
M  V30 4 1 2 5
M  V30 5 1 3 6
M  V30 6 1 4 7
M  V30 7 1 4 8
M  V30 8 2 5 9
M  V30 9 2 7 10
M  V30 10 1 8 11
M  V30 11 1 8 12
M  V30 12 1 10 13
M  V30 13 3 13 14
M  V30 14 1 14 15
M  V30 15 2 15 16
M  V30 16 1 15 17
M  V30 17 1 16 18
M  V30 18 2 17 19
M  V30 19 2 18 20
M  V30 20 1 20 21
M  V30 21 2 21 22
M  V30 22 1 21 23
M  V30 23 1 23 24
M  V30 24 1 24 25
M  V30 25 1 6 8
M  V30 26 1 9 10
M  V30 27 1 19 20
M  V30 END BOND
M  V30 END CTAB
M  END
>  <Molecule Name>


>  <status>
-

>  <cas>
118292-40-3

>  <name>
TAZAROTENE

>  <ID>
763

>  <Smiles>
CCOC(c(cc1)cnc1C#Cc(cc1)cc2c1SCCC2(C)C)=O

$$$$

Actelion Java MolfileCreator 2.0

  0  0  0  0  0  0              0 V3000
M  V30 BEGIN CTAB
M  V30 COUNTS 19 20 0 0 0
M  V30 BEGIN ATOM
M  V30 1 Cl -1.6533 -0.7995 0.0 0
M  V30 2 C -0.2614 -0.223 0.0 0
M  V30 3 C 0.9337 -1.1401 0.0 0
M  V30 4 C -0.0648 1.2706 0.0 0
M  V30 5 C 2.2723 -0.3818 0.0 0
M  V30 6 C 1.327 1.8471 0.0 0
M  V30 7 C 2.5222 0.93 0.0 0
M  V30 8 C 3.9141 1.5065 0.0 0
M  V30 9 C 3.9141 0.0 0.0 0 CFG=1
M  V30 10 C 4.9794 2.5718 0.0 0
M  V30 11 C 2.8488 2.5718 0.0 0
M  V30 12 N 2.694 -0.8464 0.0 0
M  V30 13 C 5.2188 -0.7532 0.0 0
M  V30 14 C 3.9141 3.6371 0.0 0
M  V30 15 C 1.3047 0.0 0.0 0
M  V30 16 C 2.6094 -2.2598 0.0 0
M  V30 17 C 6.5235 0.0 0.0 0
M  V30 18 C 6.5235 1.5065 0.0 0
M  V30 19 C 7.8282 -0.7532 0.0 0
M  V30 END ATOM
M  V30 BEGIN BOND
M  V30 1 1 1 2
M  V30 2 2 2 3
M  V30 3 1 2 4
M  V30 4 1 3 5
M  V30 5 2 4 6
M  V30 6 2 5 7
M  V30 7 1 7 8
M  V30 8 1 9 8
M  V30 9 1 8 10
M  V30 10 1 8 11
M  V30 11 1 9 12 CFG=3
M  V30 12 1 9 13
M  V30 13 1 10 14
M  V30 14 1 12 15
M  V30 15 1 12 16
M  V30 16 1 13 17
M  V30 17 1 17 18
M  V30 18 1 17 19
M  V30 19 1 6 7
M  V30 20 1 11 14
M  V30 END BOND
M  V30 BEGIN COLLECTION
M  V30 MDLV30/STERAC1 ATOMS=(1 9)
M  V30 END COLLECTION
M  V30 END CTAB
M  END
>  <Molecule Name>


>  <status>
DISCONTINUED

>  <cas>
106650-56-0

>  <name>
SIBUTRAMINE

>  <ID>
764

>  <Smiles>
CC(C)CC(C1(CCC1)c(cc1)ccc1Cl)N(C)C

$$$$

Actelion Java MolfileCreator 2.0

  0  0  0  0  0  0              0 V3000
M  V30 BEGIN CTAB
M  V30 COUNTS 37 40 0 0 0
M  V30 BEGIN ATOM
M  V30 1 O 13.1655 2.2803 0.0 0
M  V30 2 C 11.8489 1.5202 0.0 0
M  V30 3 O 11.8489 0.0 0.0 0 CHG=-1
M  V30 4 C 10.5324 2.2803 0.0 0
M  V30 5 C 9.2158 1.5202 0.0 0
M  V30 6 C 11.2925 3.5968 0.0 0
M  V30 7 C 9.7722 3.5968 0.0 0
M  V30 8 C 7.8993 2.2803 0.0 0
M  V30 9 C 9.2158 0.0 0.0 0
M  V30 10 C 6.5827 1.5202 0.0 0
M  V30 11 C 7.8993 -0.7601 0.0 0
M  V30 12 C 6.5827 0.0 0.0 0
M  V30 13 C 5.2662 -0.7601 0.0 0 CFG=1
M  V30 14 O 5.2662 -2.2803 0.0 0
M  V30 15 C 3.9496 0.0 0.0 0
M  V30 16 C 2.6331 -0.7601 0.0 0
M  V30 17 C 1.3165 0.0 0.0 0
M  V30 18 N 0.0 -0.7601 0.0 0
M  V30 19 C -1.3165 0.0 0.0 0
M  V30 20 C 0.0 -2.2803 0.0 0
M  V30 21 C -2.6331 -0.7601 0.0 0
M  V30 22 C -1.4127 -2.8711 0.0 0
M  V30 23 C -2.6331 -2.2803 0.0 0
M  V30 24 C -3.9496 -3.0404 0.0 0
M  V30 25 O -5.2662 -2.2803 0.0 0
M  V30 26 C -2.6331 -3.8005 0.0 0
M  V30 27 C -3.9496 -4.5606 0.0 0
M  V30 28 C -2.4431 -5.297 0.0 0
M  V30 29 C -1.055 -3.316 0.0 0
M  V30 30 C -5.2662 -5.3207 0.0 0
M  V30 31 C -3.0131 -5.3207 0.0 0
M  V30 32 C -1.3165 -6.0808 0.0 0
M  V30 33 C 0.0 -3.8005 0.0 0
M  V30 34 C -5.2662 -6.8409 0.0 0
M  V30 35 C -2.6331 -6.8409 0.0 0
M  V30 36 C 0.0 -5.3207 0.0 0
M  V30 37 C -3.9496 -7.6011 0.0 0
M  V30 END ATOM
M  V30 BEGIN BOND
M  V30 1 2 1 2
M  V30 2 1 2 3
M  V30 3 1 2 4
M  V30 4 1 4 5
M  V30 5 1 4 6
M  V30 6 1 4 7
M  V30 7 2 5 8
M  V30 8 1 5 9
M  V30 9 1 8 10
M  V30 10 2 9 11
M  V30 11 2 10 12
M  V30 12 1 13 12
M  V30 13 1 13 14 CFG=1
M  V30 14 1 13 15
M  V30 15 1 15 16
M  V30 16 1 16 17
M  V30 17 1 17 18
M  V30 18 1 18 19
M  V30 19 1 18 20
M  V30 20 1 19 21
M  V30 21 1 20 22
M  V30 22 1 21 23
M  V30 23 1 23 24
M  V30 24 1 24 25
M  V30 25 1 24 26
M  V30 26 1 24 27
M  V30 27 2 26 28
M  V30 28 1 26 29
M  V30 29 2 27 30
M  V30 30 1 27 31
M  V30 31 1 28 32
M  V30 32 2 29 33
M  V30 33 1 30 34
M  V30 34 2 31 35
M  V30 35 2 32 36
M  V30 36 2 34 37
M  V30 37 1 11 12
M  V30 38 1 22 23
M  V30 39 1 33 36
M  V30 40 1 35 37
M  V30 END BOND
M  V30 BEGIN COLLECTION
M  V30 MDLV30/STERAC1 ATOMS=(1 13)
M  V30 END COLLECTION
M  V30 END CTAB
M  END
>  <Molecule Name>


>  <status>
-

>  <cas>
138452-21-8

>  <name>
FEXOFENADINE

>  <ID>
765

>  <Smiles>
CC(C)(C([O-])=O)c1ccc(C(CCCN(CC2)CCC2C(c2ccccc2)(c2ccccc2)O)O)cc1

$$$$

Actelion Java MolfileCreator 2.0

  0  0  0  0  0  0              0 V3000
M  V30 BEGIN CTAB
M  V30 COUNTS 18 19 0 0 0
M  V30 BEGIN ATOM
M  V30 1 O 7.56 0.8716 0.0 0
M  V30 2 C 6.8909 0.1284 0.0 0
M  V30 3 N 7.1999 -0.8225 0.0 0
M  V30 4 C 5.9128 0.3364 0.0 0
M  V30 5 C 6.5308 -1.5657 0.0 0
M  V30 6 N 5.4128 1.2024 0.0 0
M  V30 7 C 5.2436 -0.4067 0.0 0
M  V30 8 N 5.5526 -1.3577 0.0 0
M  V30 9 N 6.8398 -2.5167 0.0 0
M  V30 10 C 4.4346 0.9945 0.0 0
M  V30 11 N 4.3301 0.0 0.0 0
M  V30 12 C 3.4641 -0.5 0.0 0
M  V30 13 C 2.598 0.0 0.0 0
M  V30 14 C 1.732 -0.5 0.0 0
M  V30 15 C 1.732 -1.5 0.0 0
M  V30 16 C 0.866 0.0 0.0 0
M  V30 17 O 2.598 -1.9999 0.0 0
M  V30 18 O 0.0 -0.5 0.0 0
M  V30 END ATOM
M  V30 BEGIN BOND
M  V30 1 2 1 2
M  V30 2 1 2 3
M  V30 3 1 2 4
M  V30 4 2 3 5
M  V30 5 1 4 6
M  V30 6 2 4 7
M  V30 7 1 5 8
M  V30 8 1 5 9
M  V30 9 2 6 10
M  V30 10 1 7 11
M  V30 11 1 11 12
M  V30 12 1 12 13
M  V30 13 1 13 14
M  V30 14 1 14 15
M  V30 15 1 14 16
M  V30 16 1 15 17
M  V30 17 1 16 18
M  V30 18 1 7 8
M  V30 19 1 10 11
M  V30 END BOND
M  V30 END CTAB
M  END
>  <Molecule Name>


>  <status>
-

>  <cas>
39809-25-1

>  <name>
PENCICLOVIR

>  <ID>
766

>  <Smiles>
NC(Nc1c2ncn1CCC(CO)CO)=NC2=O

$$$$

Actelion Java MolfileCreator 2.0

  0  0  0  0  0  0              0 V3000
M  V30 BEGIN CTAB
M  V30 COUNTS 27 28 0 0 0
M  V30 BEGIN ATOM
M  V30 1 O 10.2527 3.7353 0.0 0
M  V30 2 C 9.1184 3.0083 0.0 0
M  V30 3 O 7.8157 3.7603 0.0 0
M  V30 4 C 9.1184 1.5041 0.0 0
M  V30 5 C 6.5131 3.0083 0.0 0
M  V30 6 N 10.421 2.2562 0.0 0
M  V30 7 C 7.8157 2.2562 0.0 0
M  V30 8 C 9.1184 0.0 0.0 0
M  V30 9 C 11.7236 1.5041 0.0 0
M  V30 10 C 10.7088 3.8031 0.0 0
M  V30 11 C 6.5131 1.5041 0.0 0
M  V30 12 C 7.8157 -0.752 0.0 0
M  V30 13 C 13.0263 2.2562 0.0 0
M  V30 14 C 11.7236 0.0 0.0 0
M  V30 15 O 11.7236 4.5124 0.0 0
M  V30 16 C 9.1184 4.5124 0.0 0
M  V30 17 N 6.5131 0.0 0.0 0
M  V30 18 C 14.3289 1.5041 0.0 0
M  V30 19 C 13.0263 -0.752 0.0 0
M  V30 20 C 9.1184 6.0166 0.0 0
M  V30 21 C 5.2105 -0.752 0.0 0
M  V30 22 C 14.3289 0.0 0.0 0
M  V30 23 C 3.9078 0.0 0.0 0
M  V30 24 C 2.6052 -0.752 0.0 0
M  V30 25 O 2.6052 -2.2562 0.0 0
M  V30 26 O 1.3026 0.0 0.0 0
M  V30 27 C 0.0 -0.752 0.0 0
M  V30 END ATOM
M  V30 BEGIN BOND
M  V30 1 2 1 2
M  V30 2 1 2 3
M  V30 3 1 2 4
M  V30 4 1 3 5
M  V30 5 1 4 6
M  V30 6 1 4 7
M  V30 7 1 4 8
M  V30 8 1 6 9
M  V30 9 1 6 10
M  V30 10 1 7 11
M  V30 11 1 8 12
M  V30 12 2 9 13
M  V30 13 1 9 14
M  V30 14 2 10 15
M  V30 15 1 10 16
M  V30 16 1 11 17
M  V30 17 1 13 18
M  V30 18 2 14 19
M  V30 19 1 16 20
M  V30 20 1 17 21
M  V30 21 2 18 22
M  V30 22 1 21 23
M  V30 23 1 23 24
M  V30 24 2 24 25
M  V30 25 1 24 26
M  V30 26 1 26 27
M  V30 27 1 12 17
M  V30 28 1 19 22
M  V30 END BOND
M  V30 END CTAB
M  END
>  <Molecule Name>


>  <status>
-

>  <cas>
132875-61-7

>  <name>
REMIFENTANIL

>  <ID>
767

>  <Smiles>
CCC(N(C1(CCN(CCC(OC)=O)CC1)C(OC)=O)c1ccccc1)=O

$$$$

Actelion Java MolfileCreator 2.0

  0  0  0  0  0  0              0 V3000
M  V30 BEGIN CTAB
M  V30 COUNTS 19 20 0 0 0
M  V30 BEGIN ATOM
M  V30 1 Cl -1.6533 -0.7995 0.0 0
M  V30 2 C -0.2614 -0.223 0.0 0
M  V30 3 C 0.9337 -1.1401 0.0 0
M  V30 4 C -0.0648 1.2706 0.0 0
M  V30 5 C 2.2723 -0.3818 0.0 0
M  V30 6 C 1.327 1.8471 0.0 0
M  V30 7 C 2.5222 0.93 0.0 0
M  V30 8 C 3.9141 1.5065 0.0 0
M  V30 9 C 3.9141 0.0 0.0 0 CFG=1
M  V30 10 C 4.9794 2.5718 0.0 0
M  V30 11 C 2.8488 2.5718 0.0 0
M  V30 12 N 2.694 -0.8464 0.0 0
M  V30 13 C 5.2188 -0.7532 0.0 0
M  V30 14 C 3.9141 3.6371 0.0 0
M  V30 15 C 1.3047 0.0 0.0 0
M  V30 16 C 2.6094 -2.2598 0.0 0
M  V30 17 C 6.5235 0.0 0.0 0
M  V30 18 C 6.5235 1.5065 0.0 0
M  V30 19 C 7.8282 -0.7532 0.0 0
M  V30 END ATOM
M  V30 BEGIN BOND
M  V30 1 1 1 2
M  V30 2 2 2 3
M  V30 3 1 2 4
M  V30 4 1 3 5
M  V30 5 2 4 6
M  V30 6 2 5 7
M  V30 7 1 7 8
M  V30 8 1 9 8
M  V30 9 1 8 10
M  V30 10 1 8 11
M  V30 11 1 9 12 CFG=3
M  V30 12 1 9 13
M  V30 13 1 10 14
M  V30 14 1 12 15
M  V30 15 1 12 16
M  V30 16 1 13 17
M  V30 17 1 17 18
M  V30 18 1 17 19
M  V30 19 1 6 7
M  V30 20 1 11 14
M  V30 END BOND
M  V30 BEGIN COLLECTION
M  V30 MDLV30/STERAC1 ATOMS=(1 9)
M  V30 END COLLECTION
M  V30 END CTAB
M  END
>  <Molecule Name>


>  <status>
DISCONTINUED

>  <cas>
106650-56-0

>  <name>
SIBUTRAMINE

>  <ID>
768

>  <Smiles>
CC(C)CC(C1(CCC1)c(cc1)ccc1Cl)N(C)C

$$$$

Actelion Java MolfileCreator 2.0

  0  0  0  0  0  0              0 V3000
M  V30 BEGIN CTAB
M  V30 COUNTS 26 29 0 0 0
M  V30 BEGIN ATOM
M  V30 1 F 3.4641 -4.4999 0.0 0
M  V30 2 C 3.4641 -3.4999 0.0 0
M  V30 3 C 4.3301 -3.0 0.0 0
M  V30 4 C 2.598 -2.9999 0.0 0
M  V30 5 N 5.1961 -3.5 0.0 0
M  V30 6 C 4.3301 -1.9999 0.0 0
M  V30 7 C 2.598 -2.0 0.0 0
M  V30 8 C 5.1961 -4.5 0.0 0
M  V30 9 C 6.0621 -3.0 0.0 0
M  V30 10 O 5.1961 -1.4999 0.0 0
M  V30 11 C 3.4641 -1.5 0.0 0
M  V30 12 C 1.732 -1.5 0.0 0
M  V30 13 C 6.0621 -5.0 0.0 0
M  V30 14 C 6.9282 -3.5 0.0 0
M  V30 15 C 5.1961 -0.4999 0.0 0
M  V30 16 N 3.4641 -0.5 0.0 0
M  V30 17 O 0.866 -2.0 0.0 0
M  V30 18 C 1.732 -0.5 0.0 0
M  V30 19 N 6.9282 -4.5 0.0 0
M  V30 20 C 4.3301 0.0 0.0 0 CFG=1
M  V30 21 C 2.598 0.0 0.0 0
M  V30 22 C 0.866 0.0 0.0 0
M  V30 23 C 7.7942 -5.0 0.0 0
M  V30 24 C 4.3301 0.9999 0.0 0
M  V30 25 O 0.866 1.0 0.0 0
M  V30 26 O 0.0 -0.5 0.0 0 CHG=-1
M  V30 END ATOM
M  V30 BEGIN BOND
M  V30 1 1 1 2
M  V30 2 2 2 3
M  V30 3 1 2 4
M  V30 4 1 3 5
M  V30 5 1 3 6
M  V30 6 2 4 7
M  V30 7 1 5 8
M  V30 8 1 5 9
M  V30 9 1 6 10
M  V30 10 2 6 11
M  V30 11 1 7 12
M  V30 12 1 8 13
M  V30 13 1 9 14
M  V30 14 1 10 15
M  V30 15 1 11 16
M  V30 16 2 12 17
M  V30 17 1 12 18
M  V30 18 1 13 19
M  V30 19 1 20 15
M  V30 20 1 16 21
M  V30 21 1 18 22
M  V30 22 1 19 23
M  V30 23 1 20 24 CFG=1
M  V30 24 2 22 25
M  V30 25 1 22 26
M  V30 26 1 7 11
M  V30 27 1 14 19
M  V30 28 1 16 20
M  V30 29 2 18 21
M  V30 END BOND
M  V30 BEGIN COLLECTION
M  V30 MDLV30/STERAC1 ATOMS=(1 20)
M  V30 END COLLECTION
M  V30 END CTAB
M  END
>  <Molecule Name>


>  <status>
-

>  <cas>
100986-85-4

>  <name>
LEVOFLOXACIN

>  <ID>
769

>  <Smiles>
CC1N(C=C(C([O-])=O)C(c2cc(F)c3N4CCN(C)CC4)=O)c2c3OC1

$$$$

Actelion Java MolfileCreator 2.0

  0  0  0  0  0  0              0 V3000
M  V30 BEGIN CTAB
M  V30 COUNTS 20 23 0 0 0
M  V30 BEGIN ATOM
M  V30 1 O -1.3484 2.4699 0.0 0
M  V30 2 C -0.3596 2.3209 0.0 0
M  V30 3 N -0.0648 1.3653 0.0 0
M  V30 4 C 0.2037 3.1471 0.0 0
M  V30 5 C 0.866 0.9999 0.0 0
M  V30 6 C 1.2009 3.2218 0.0 0
M  V30 7 C -0.3596 3.9733 0.0 0
M  V30 8 C 1.732 1.4999 0.0 0
M  V30 9 C 0.866 0.0 0.0 0
M  V30 10 N 1.6348 4.1228 0.0 0
M  V30 11 N 1.881 2.4888 0.0 0
M  V30 12 C 0.0742 4.8743 0.0 0
M  V30 13 N 2.598 0.9999 0.0 0
M  V30 14 C 1.732 -0.5 0.0 0
M  V30 15 C 0.0 -0.5 0.0 0
M  V30 16 C 1.0714 4.949 0.0 0
M  V30 17 C 2.8366 2.7835 0.0 0
M  V30 18 C 2.598 0.0 0.0 0
M  V30 19 C 3.8115 2.561 0.0 0
M  V30 20 C 3.5168 3.5166 0.0 0
M  V30 END ATOM
M  V30 BEGIN BOND
M  V30 1 2 1 2
M  V30 2 1 2 3
M  V30 3 1 2 4
M  V30 4 1 3 5
M  V30 5 2 4 6
M  V30 6 1 4 7
M  V30 7 2 5 8
M  V30 8 1 5 9
M  V30 9 1 6 10
M  V30 10 1 6 11
M  V30 11 2 7 12
M  V30 12 1 8 13
M  V30 13 2 9 14
M  V30 14 1 9 15
M  V30 15 2 10 16
M  V30 16 1 11 17
M  V30 17 2 13 18
M  V30 18 1 17 19
M  V30 19 1 17 20
M  V30 20 1 8 11
M  V30 21 1 12 16
M  V30 22 1 14 18
M  V30 23 1 19 20
M  V30 END BOND
M  V30 END CTAB
M  END
>  <Molecule Name>


>  <status>
-

>  <cas>
129618-40-2

>  <name>
NEVIRAPINE

>  <ID>
770

>  <Smiles>
Cc1ccnc(N(C2CC2)c2c3cccn2)c1NC3=O

$$$$

Actelion Java MolfileCreator 2.0

  0  0  0  0  0  0              0 V3000
M  V30 BEGIN CTAB
M  V30 COUNTS 18 18 0 0 0
M  V30 BEGIN ATOM
M  V30 1 P 4.3301 0.0 0.0 0
M  V30 2 O 4.8301 -0.866 0.0 0
M  V30 3 O 5.1961 0.4999 0.0 0 CHG=-1
M  V30 4 O 3.8301 0.866 0.0 0 CHG=-1
M  V30 5 C 3.4641 -0.5 0.0 0
M  V30 6 O 2.598 0.0 0.0 0
M  V30 7 C 1.732 -0.5 0.0 0 CFG=2
M  V30 8 C 1.732 -1.5 0.0 0
M  V30 9 C 0.866 0.0 0.0 0
M  V30 10 O 2.598 -1.9999 0.0 0
M  V30 11 N 0.0 -0.5 0.0 0
M  V30 12 C -0.866 0.0 0.0 0
M  V30 13 C 0.0 -1.4999 0.0 0
M  V30 14 O -0.866 1.0 0.0 0
M  V30 15 N -1.732 -0.4999 0.0 0
M  V30 16 C -0.866 -1.9999 0.0 0
M  V30 17 C -1.732 -1.4999 0.0 0
M  V30 18 N -2.598 -1.9999 0.0 0
M  V30 END ATOM
M  V30 BEGIN BOND
M  V30 1 2 1 2
M  V30 2 1 1 3
M  V30 3 1 1 4
M  V30 4 1 1 5
M  V30 5 1 5 6
M  V30 6 1 7 6 CFG=3
M  V30 7 1 7 8
M  V30 8 1 7 9
M  V30 9 1 8 10
M  V30 10 1 9 11
M  V30 11 1 11 12
M  V30 12 1 11 13
M  V30 13 2 12 14
M  V30 14 1 12 15
M  V30 15 2 13 16
M  V30 16 2 15 17
M  V30 17 1 17 18
M  V30 18 1 16 17
M  V30 END BOND
M  V30 BEGIN COLLECTION
M  V30 MDLV30/STERAC1 ATOMS=(1 7)
M  V30 END COLLECTION
M  V30 END CTAB
M  END
>  <Molecule Name>


>  <status>
-

>  <cas>
113852-37-2

>  <name>
CIDOFOVIR

>  <ID>
771

>  <Smiles>
NC(C=CN1CC(CO)OCP([O-])([O-])=O)=NC1=O

$$$$

Actelion Java MolfileCreator 2.0

  0  0  0  0  0  0              0 V3000
M  V30 BEGIN CTAB
M  V30 COUNTS 25 27 0 0 0
M  V30 BEGIN ATOM
M  V30 1 S 5.2436 -0.4067 0.0 0
M  V30 2 C 4.3301 0.0 0.0 0
M  V30 3 C 5.9128 0.3364 0.0 0
M  V30 4 C 4.4346 0.9945 0.0 0
M  V30 5 C 3.4641 -0.5 0.0 0
M  V30 6 C 5.4128 1.2024 0.0 0
M  V30 7 C 3.6915 1.6636 0.0 0
M  V30 8 C 3.4641 -1.5 0.0 0
M  V30 9 C 2.598 0.0 0.0 0
M  V30 10 S 2.655 -2.0877 0.0 0
M  V30 11 C 4.2731 -2.0877 0.0 0
M  V30 12 C 1.732 -0.5 0.0 0
M  V30 13 C 2.9641 -3.0388 0.0 0
M  V30 14 C 3.9641 -3.0388 0.0 0
M  V30 15 C 5.2241 -1.7787 0.0 0
M  V30 16 C 0.866 0.0 0.0 0
M  V30 17 N 0.0 -0.5 0.0 0
M  V30 18 C -0.866 0.0 0.0 0
M  V30 19 C 0.0 -1.4999 0.0 0
M  V30 20 C -1.732 -0.4999 0.0 0 CFG=1
M  V30 21 C -0.866 -1.9999 0.0 0
M  V30 22 C -2.598 0.0 0.0 0
M  V30 23 C -1.732 -1.4999 0.0 0
M  V30 24 O -2.598 1.0 0.0 0
M  V30 25 O -3.4641 -0.4999 0.0 0 CHG=-1
M  V30 END ATOM
M  V30 BEGIN BOND
M  V30 1 1 1 2
M  V30 2 1 1 3
M  V30 3 2 2 4
M  V30 4 1 2 5
M  V30 5 2 3 6
M  V30 6 1 4 7
M  V30 7 1 5 8
M  V30 8 2 5 9
M  V30 9 1 8 10
M  V30 10 2 8 11
M  V30 11 1 9 12
M  V30 12 1 10 13
M  V30 13 1 11 14
M  V30 14 1 11 15
M  V30 15 1 12 16
M  V30 16 1 16 17
M  V30 17 1 17 18
M  V30 18 1 17 19
M  V30 19 1 20 18
M  V30 20 1 19 21
M  V30 21 1 20 22 CFG=3
M  V30 22 1 20 23
M  V30 23 2 22 24
M  V30 24 1 22 25
M  V30 25 1 4 6
M  V30 26 2 13 14
M  V30 27 1 21 23
M  V30 END BOND
M  V30 BEGIN COLLECTION
M  V30 MDLV30/STERAC1 ATOMS=(1 20)
M  V30 END COLLECTION
M  V30 END CTAB
M  END
>  <Molecule Name>


>  <status>
-

>  <cas>
115103-54-3

>  <name>
TIAGABINE

>  <ID>
772

>  <Smiles>
Cc1c(C(c2c(C)ccs2)=CCCN(CCC2)CC2C([O-])=O)scc1

$$$$

Actelion Java MolfileCreator 2.0

  0  0  0  0  0  0              0 V3000
M  V30 BEGIN CTAB
M  V30 COUNTS 19 20 0 0 0
M  V30 BEGIN ATOM
M  V30 1 O 4.3597 -3.9487 0.0 0
M  V30 2 C 4.8597 -3.0826 0.0 0
M  V30 3 N 5.8542 -2.9781 0.0 0
M  V30 4 C 4.453 -2.1691 0.0 0
M  V30 5 C 6.0621 -2.0 0.0 0
M  V30 6 C 5.1961 -1.5 0.0 0
M  V30 7 C 6.9282 -1.5 0.0 0
M  V30 8 C 5.1961 -0.5 0.0 0
M  V30 9 C 6.9282 -0.5 0.0 0
M  V30 10 C 6.0621 0.0 0.0 0
M  V30 11 C 4.3301 0.0 0.0 0
M  V30 12 C 3.4641 -0.5 0.0 0
M  V30 13 N 2.598 0.0 0.0 0
M  V30 14 C 2.598 0.9999 0.0 0
M  V30 15 C 1.732 -0.5 0.0 0
M  V30 16 C 3.4641 1.4999 0.0 0
M  V30 17 C 0.866 0.0 0.0 0
M  V30 18 C 3.4641 2.4999 0.0 0
M  V30 19 C 0.0 -0.5 0.0 0
M  V30 END ATOM
M  V30 BEGIN BOND
M  V30 1 2 1 2
M  V30 2 1 2 3
M  V30 3 1 2 4
M  V30 4 1 3 5
M  V30 5 1 4 6
M  V30 6 1 5 7
M  V30 7 1 6 8
M  V30 8 2 7 9
M  V30 9 2 8 10
M  V30 10 1 8 11
M  V30 11 1 11 12
M  V30 12 1 12 13
M  V30 13 1 13 14
M  V30 14 1 13 15
M  V30 15 1 14 16
M  V30 16 1 15 17
M  V30 17 1 16 18
M  V30 18 1 17 19
M  V30 19 2 5 6
M  V30 20 1 9 10
M  V30 END BOND
M  V30 END CTAB
M  END
>  <Molecule Name>


>  <status>
-

>  <cas>
91374-21-9

>  <name>
ROPINIROLE

>  <ID>
773

>  <Smiles>
CCCN(CCC)CCc1cccc(N2)c1CC2=O

$$$$

Actelion Java MolfileCreator 2.0

  0  0  0  0  0  0              0 V3000
M  V30 BEGIN CTAB
M  V30 COUNTS 50 53 0 0 0
M  V30 BEGIN ATOM
M  V30 1 S 15.5029 6.8816 0.0 0
M  V30 2 C 14.2894 5.9999 0.0 0
M  V30 3 C 15.0394 8.3082 0.0 0
M  V30 4 C 13.0758 6.8816 0.0 0
M  V30 5 C 14.2894 4.4999 0.0 0
M  V30 6 N 13.5394 8.3082 0.0 0
M  V30 7 O 12.9903 3.75 0.0 0
M  V30 8 C 12.9903 2.25 0.0 0
M  V30 9 O 11.6913 1.5 0.0 0
M  V30 10 N 14.2894 1.4999 0.0 0
M  V30 11 C 14.2894 0.0 0.0 0 CFG=2
M  V30 12 C 12.9903 -0.75 0.0 0 CFG=1
M  V30 13 C 15.5884 -0.75 0.0 0
M  V30 14 O 12.9903 -2.25 0.0 0
M  V30 15 C 11.6913 0.0 0.0 0
M  V30 16 C 16.8874 0.0 0.0 0
M  V30 17 C 10.3923 -0.75 0.0 0 CFG=1
M  V30 18 C 18.1865 -0.75 0.0 0
M  V30 19 C 16.8874 1.4999 0.0 0
M  V30 20 N 9.0932 0.0 0.0 0
M  V30 21 C 10.3923 -2.25 0.0 0
M  V30 22 C 19.4855 0.0 0.0 0
M  V30 23 C 18.1865 2.2499 0.0 0
M  V30 24 C 9.0932 1.5 0.0 0
M  V30 25 C 9.0932 -3.0 0.0 0
M  V30 26 C 19.4855 1.4999 0.0 0
M  V30 27 O 10.3923 2.2499 0.0 0
M  V30 28 C 7.7942 2.25 0.0 0 CFG=1
M  V30 29 C 9.0932 -4.5 0.0 0
M  V30 30 C 7.7942 -2.25 0.0 0
M  V30 31 N 6.4951 1.5 0.0 0
M  V30 32 C 7.7942 3.75 0.0 0
M  V30 33 C 7.7942 -5.25 0.0 0
M  V30 34 C 6.4951 -3.0 0.0 0
M  V30 35 C 5.1961 2.2499 0.0 0
M  V30 36 C 9.0932 4.5 0.0 0
M  V30 37 C 6.4951 4.5 0.0 0
M  V30 38 C 6.4951 -4.5 0.0 0
M  V30 39 O 5.1961 3.75 0.0 0
M  V30 40 N 3.8971 1.5 0.0 0
M  V30 41 C 2.598 2.25 0.0 0
M  V30 42 C 3.8971 0.0 0.0 0
M  V30 43 C 1.299 1.5 0.0 0
M  V30 44 N -0.0712 2.1101 0.0 0
M  V30 45 C 1.1422 0.0082 0.0 0
M  V30 46 C -1.0749 0.9953 0.0 0
M  V30 47 S -0.3249 -0.3036 0.0 0
M  V30 48 C -2.5667 1.1521 0.0 0
M  V30 49 C -3.1768 2.5224 0.0 0
M  V30 50 C -3.4484 -0.0613 0.0 0
M  V30 END ATOM
M  V30 BEGIN BOND
M  V30 1 1 1 2
M  V30 2 1 1 3
M  V30 3 2 2 4
M  V30 4 1 2 5
M  V30 5 2 3 6
M  V30 6 1 5 7
M  V30 7 1 7 8
M  V30 8 2 8 9
M  V30 9 1 8 10
M  V30 10 1 11 10 CFG=1
M  V30 11 1 12 11
M  V30 12 1 11 13
M  V30 13 1 12 14 CFG=1
M  V30 14 1 12 15
M  V30 15 1 13 16
M  V30 16 1 17 15
M  V30 17 2 16 18
M  V30 18 1 16 19
M  V30 19 1 17 20 CFG=3
M  V30 20 1 17 21
M  V30 21 1 18 22
M  V30 22 2 19 23
M  V30 23 1 20 24
M  V30 24 1 21 25
M  V30 25 2 22 26
M  V30 26 2 24 27
M  V30 27 1 28 24
M  V30 28 2 25 29
M  V30 29 1 25 30
M  V30 30 1 28 31 CFG=1
M  V30 31 1 28 32
M  V30 32 1 29 33
M  V30 33 2 30 34
M  V30 34 1 31 35
M  V30 35 1 32 36
M  V30 36 1 32 37
M  V30 37 2 33 38
M  V30 38 2 35 39
M  V30 39 1 35 40
M  V30 40 1 40 41
M  V30 41 1 40 42
M  V30 42 1 41 43
M  V30 43 1 43 44
M  V30 44 2 43 45
M  V30 45 2 44 46
M  V30 46 1 45 47
M  V30 47 1 46 48
M  V30 48 1 48 49
M  V30 49 1 48 50
M  V30 50 1 4 6
M  V30 51 1 23 26
M  V30 52 1 34 38
M  V30 53 1 46 47
M  V30 END BOND
M  V30 BEGIN COLLECTION
M  V30 MDLV30/STERAC1 ATOMS=(4 11 12 17 28)
M  V30 END COLLECTION
M  V30 END CTAB
M  END
>  <Molecule Name>


>  <status>
-

>  <cas>
155213-67-5

>  <name>
RITONAVIR

>  <ID>
774

>  <Smiles>
CC(C)[C@@H](C(N[C@H](C[C@@H]([C@H](Cc1ccccc1)NC(OCc1cncs1)=O)O)Cc1ccccc1)=O)NC(N(C)Cc1csc(C(C)C)n1)=O

$$$$
_c001
Actelion Java MolfileCreator 2.0

  0  0  0  0  0  0              0 V3000
M  V30 BEGIN CTAB
M  V30 COUNTS 33 36 0 0 0
M  V30 BEGIN ATOM
M  V30 1 O 6.9282 1.4999 0.0 0
M  V30 2 C 6.0621 0.9999 0.0 0
M  V30 3 N 5.1961 1.4999 0.0 0
M  V30 4 N 6.0621 0.0 0.0 0
M  V30 5 C 4.3301 1.0 0.0 0
M  V30 6 C 5.1961 2.4999 0.0 0
M  V30 7 C 6.9282 -0.5 0.0 0
M  V30 8 O 4.3301 0.0 0.0 0
M  V30 9 C 3.4641 1.5 0.0 0 CFG=2
M  V30 10 C 6.0621 2.9999 0.0 0
M  V30 11 C 6.9282 -1.5 0.0 0
M  V30 12 C 3.4641 2.5 0.0 0
M  V30 13 C 2.598 1.0 0.0 0
M  V30 14 C 6.9282 2.4999 0.0 0
M  V30 15 N 2.598 3.0 0.0 0
M  V30 16 C 1.732 1.5 0.0 0 CFG=2
M  V30 17 N 7.7942 2.9999 0.0 0
M  V30 18 C 1.732 2.5 0.0 0 CFG=2
M  V30 19 C 2.598 4.0 0.0 0
M  V30 20 C 0.866 1.0 0.0 0
M  V30 21 C 7.7942 3.9999 0.0 0
M  V30 22 C 8.6602 2.4999 0.0 0
M  V30 23 C 0.866 3.0 0.0 0
M  V30 24 C 1.732 4.5 0.0 0
M  V30 25 C 0.0 1.5 0.0 0
M  V30 26 C 0.7109 -0.0204 0.0 0
M  V30 27 C 0.0 2.5 0.0 0
M  V30 28 C 1.732 5.5 0.0 0
M  V30 29 C -0.951 1.1909 0.0 0
M  V30 30 C -0.2025 -0.4272 0.0 0
M  V30 31 C -0.951 2.809 0.0 0
M  V30 32 N -1.5388 2.0 0.0 0
M  V30 33 C -1.0115 0.1605 0.0 0
M  V30 END ATOM
M  V30 BEGIN BOND
M  V30 1 2 1 2
M  V30 2 1 2 3
M  V30 3 1 2 4
M  V30 4 1 3 5
M  V30 5 1 3 6
M  V30 6 1 4 7
M  V30 7 2 5 8
M  V30 8 1 9 5 CFG=1
M  V30 9 1 6 10
M  V30 10 1 7 11
M  V30 11 1 9 12
M  V30 12 1 9 13
M  V30 13 1 10 14
M  V30 14 1 12 15
M  V30 15 1 16 13 CFG=1
M  V30 16 1 14 17
M  V30 17 1 18 15 CFG=3
M  V30 18 1 15 19
M  V30 19 1 16 20
M  V30 20 1 17 21
M  V30 21 1 17 22
M  V30 22 1 18 23
M  V30 23 1 19 24
M  V30 24 2 20 25
M  V30 25 1 20 26
M  V30 26 1 23 27
M  V30 27 2 24 28
M  V30 28 1 25 29
M  V30 29 2 26 30
M  V30 30 2 27 31
M  V30 31 1 29 32
M  V30 32 2 29 33
M  V30 33 1 16 18
M  V30 34 1 25 27
M  V30 35 1 30 33
M  V30 36 1 31 32
M  V30 END BOND
M  V30 BEGIN COLLECTION
M  V30 MDLV30/STERAC1 ATOMS=(3 9 16 18)
M  V30 END COLLECTION
M  V30 END CTAB
M  END
>  <Molecule Name>
_c001

>  <status>
-

>  <cas>
81409-90-7

>  <name>
CABERGOLINE

>  <ID>
775

>  <Smiles>
CCNC(N(CCCN(C)C)C([C@@H](C1)CN(CC=C)[C@@H](Cc2c[nH]3)[C@@H]1c1c2c3ccc1)=O)=O

$$$$

Actelion Java MolfileCreator 2.0

  0  0  0  0  0  0              0 V3000
M  V30 BEGIN CTAB
M  V30 COUNTS 32 34 0 0 0
M  V30 BEGIN ATOM
M  V30 1 O 6.9282 -0.5 0.0 0
M  V30 2 C 6.0621 0.0 0.0 0
M  V30 3 O 6.0621 0.9999 0.0 0 CHG=-1
M  V30 4 C 5.1961 -0.5 0.0 0 CFG=1
M  V30 5 N 4.3301 0.0 0.0 0
M  V30 6 C 5.1961 -1.5 0.0 0
M  V30 7 C 3.4641 -0.5 0.0 0
M  V30 8 C 4.3301 1.0 0.0 0
M  V30 9 C 4.3301 -1.9999 0.0 0
M  V30 10 C 6.0621 -2.0 0.0 0
M  V30 11 O 3.4641 -1.5 0.0 0
M  V30 12 C 2.598 0.0 0.0 0
M  V30 13 C 3.4641 1.5 0.0 0
M  V30 14 C 1.732 -0.5 0.0 0
M  V30 15 C 3.4641 2.5 0.0 0
M  V30 16 C 2.598 1.0 0.0 0
M  V30 17 C 0.866 0.0 0.0 0
M  V30 18 C 2.598 3.0 0.0 0
M  V30 19 C 1.732 1.5 0.0 0
M  V30 20 C 0.0 -0.5 0.0 0
M  V30 21 C 1.732 2.5 0.0 0
M  V30 22 C 0.866 3.0 0.0 0
M  V30 23 C 0.866 4.0 0.0 0
M  V30 24 C 0.0 2.5 0.0 0
M  V30 25 C 1.732 4.5 0.0 0
M  V30 26 C 0.0 4.5 0.0 0
M  V30 27 C -0.866 3.0 0.0 0
M  V30 28 N 2.6455 4.0932 0.0 0
M  V30 29 N 1.8365 5.4945 0.0 0
M  V30 30 C -0.866 4.0 0.0 0
M  V30 31 N 3.3147 4.8364 0.0 0
M  V30 32 N 2.8147 5.7024 0.0 0
M  V30 END ATOM
M  V30 BEGIN BOND
M  V30 1 2 1 2
M  V30 2 1 2 3
M  V30 3 1 4 2
M  V30 4 1 4 5 CFG=3
M  V30 5 1 4 6
M  V30 6 1 5 7
M  V30 7 1 5 8
M  V30 8 1 6 9
M  V30 9 1 6 10
M  V30 10 2 7 11
M  V30 11 1 7 12
M  V30 12 1 8 13
M  V30 13 1 12 14
M  V30 14 2 13 15
M  V30 15 1 13 16
M  V30 16 1 14 17
M  V30 17 1 15 18
M  V30 18 2 16 19
M  V30 19 1 17 20
M  V30 20 2 18 21
M  V30 21 1 21 22
M  V30 22 2 22 23
M  V30 23 1 22 24
M  V30 24 1 23 25
M  V30 25 1 23 26
M  V30 26 2 24 27
M  V30 27 1 25 28
M  V30 28 2 25 29
M  V30 29 2 26 30
M  V30 30 2 28 31
M  V30 31 1 29 32
M  V30 32 1 19 21
M  V30 33 1 27 30
M  V30 34 1 31 32
M  V30 END BOND
M  V30 BEGIN COLLECTION
M  V30 MDLV30/STERAC1 ATOMS=(1 4)
M  V30 END COLLECTION
M  V30 END CTAB
M  END
>  <Molecule Name>


>  <status>
-

>  <cas>
137862-53-4

>  <name>
VALSARTAN

>  <ID>
776

>  <Smiles>
CCCCC(N(Cc(cc1)ccc1-c(cccc1)c1-c1n[nH]nn1)C(C(C)C)C([O-])=O)=O

$$$$

Actelion Java MolfileCreator 2.0

  0  0  0  0  0  0              0 V3000
M  V30 BEGIN CTAB
M  V30 COUNTS 18 19 0 0 0
M  V30 BEGIN ATOM
M  V30 1 S 7.5467 -1.7024 0.0 0
M  V30 2 C 6.5467 -1.7024 0.0 0
M  V30 3 C 8.0467 -0.8364 0.0 0
M  V30 4 C 6.0467 -0.8364 0.0 0
M  V30 5 C 6.0467 -2.5684 0.0 0
M  V30 6 C 9.0467 -0.8364 0.0 0
M  V30 7 C 5.0467 -0.8364 0.0 0
M  V30 8 C 5.0467 -2.5684 0.0 0
M  V30 9 C 9.5467 0.0296 0.0 0
M  V30 10 N 4.3776 -0.0932 0.0 0
M  V30 11 C 4.5467 -1.7024 0.0 0
M  V30 12 C 3.4641 -0.5 0.0 0
M  V30 13 N 3.5686 -1.4945 0.0 0
M  V30 14 N 2.598 0.0 0.0 0
M  V30 15 C 1.732 -0.5 0.0 0
M  V30 16 O 1.732 -1.5 0.0 0
M  V30 17 O 0.866 0.0 0.0 0
M  V30 18 C 0.0 -0.5 0.0 0
M  V30 END ATOM
M  V30 BEGIN BOND
M  V30 1 1 1 2
M  V30 2 1 1 3
M  V30 3 2 2 4
M  V30 4 1 2 5
M  V30 5 1 3 6
M  V30 6 1 4 7
M  V30 7 2 5 8
M  V30 8 1 6 9
M  V30 9 1 7 10
M  V30 10 2 7 11
M  V30 11 1 10 12
M  V30 12 1 11 13
M  V30 13 1 12 14
M  V30 14 1 14 15
M  V30 15 2 15 16
M  V30 16 1 15 17
M  V30 17 1 17 18
M  V30 18 1 8 11
M  V30 19 2 12 13
M  V30 END BOND
M  V30 END CTAB
M  END
>  <Molecule Name>


>  <status>
-

>  <cas>
54965-21-8

>  <name>
ALBENDAZOLE

>  <ID>
777

>  <Smiles>
CCCSc(cc1)cc2c1nc(NC(OC)=O)[nH]2

$$$$

Actelion Java MolfileCreator 2.0

  0  0  0  0  0  0              0 V3000
M  V30 BEGIN CTAB
M  V30 COUNTS 31 35 0 0 0
M  V30 BEGIN ATOM
M  V30 1 O 8.5704 -7.2078 0.0 0
M  V30 2 C 9.1805 -5.8375 0.0 0
M  V30 3 N 8.2988 -4.624 0.0 0
M  V30 4 C 10.6723 -5.6807 0.0 0
M  V30 5 C 8.9089 -3.2536 0.0 0
M  V30 6 C 6.807 -4.4672 0.0 0
M  V30 7 C 11.2824 -4.3104 0.0 0
M  V30 8 C 11.5539 -6.8942 0.0 0
M  V30 9 C 7.7942 -2.2499 0.0 0
M  V30 10 C 10.4007 -3.0969 0.0 0
M  V30 11 C 6.4951 -2.9999 0.0 0
M  V30 12 C 12.7741 -4.1536 0.0 0 CFG=2
M  V30 13 O 13.0457 -6.7374 0.0 0
M  V30 14 N 7.7942 -0.7499 0.0 0
M  V30 15 C 5.1961 -2.25 0.0 0
M  V30 16 O 11.8925 -2.9401 0.0 0
M  V30 17 C 13.6558 -5.3671 0.0 0
M  V30 18 C 13.3842 -2.7833 0.0 0
M  V30 19 C 6.4951 0.0 0.0 0
M  V30 20 C 5.1961 -0.7499 0.0 0
M  V30 21 O 15.1476 -5.2103 0.0 0
M  V30 22 C 14.876 -2.6265 0.0 0
M  V30 23 C 6.4951 1.5 0.0 0
M  V30 24 C 3.8971 0.0 0.0 0
M  V30 25 C 5.1961 2.25 0.0 0
M  V30 26 C 3.8971 1.5 0.0 0
M  V30 27 C 2.598 -0.75 0.0 0
M  V30 28 O 2.598 2.25 0.0 0
M  V30 29 N 1.299 0.0 0.0 0
M  V30 30 C 1.299 1.5 0.0 0
M  V30 31 C 0.0 -0.75 0.0 0
M  V30 END ATOM
M  V30 BEGIN BOND
M  V30 1 2 1 2
M  V30 2 1 2 3
M  V30 3 1 2 4
M  V30 4 1 3 5
M  V30 5 1 3 6
M  V30 6 2 4 7
M  V30 7 1 4 8
M  V30 8 1 5 9
M  V30 9 2 5 10
M  V30 10 1 6 11
M  V30 11 1 12 7
M  V30 12 1 8 13
M  V30 13 2 9 14
M  V30 14 2 11 15
M  V30 15 1 12 16 CFG=3
M  V30 16 1 12 17
M  V30 17 1 12 18
M  V30 18 1 14 19
M  V30 19 1 15 20
M  V30 20 2 17 21
M  V30 21 1 18 22
M  V30 22 2 19 23
M  V30 23 2 20 24
M  V30 24 1 23 25
M  V30 25 1 24 26
M  V30 26 1 24 27
M  V30 27 1 26 28
M  V30 28 1 27 29
M  V30 29 1 29 30
M  V30 30 1 29 31
M  V30 31 1 7 10
M  V30 32 1 9 11
M  V30 33 1 13 17
M  V30 34 1 19 20
M  V30 35 2 25 26
M  V30 END BOND
M  V30 BEGIN COLLECTION
M  V30 MDLV30/STERAC1 ATOMS=(1 12)
M  V30 END COLLECTION
M  V30 END CTAB
M  END
>  <Molecule Name>


>  <status>
-

>  <cas>
123948-87-8

>  <name>
TOPOTECAN

>  <ID>
778

>  <Smiles>
CCC(C(C=C1N2Cc3cc4c(CN(C)C)c(O)ccc4nc13)=C(CO1)C2=O)(C1=O)O

$$$$

Actelion Java MolfileCreator 2.0

  0  0  0  0  0  0              0 V3000
M  V30 BEGIN CTAB
M  V30 COUNTS 28 31 0 0 0
M  V30 BEGIN ATOM
M  V30 1 F 4.3301 -2.9999 0.0 0
M  V30 2 C 4.3301 -1.9999 0.0 0
M  V30 3 C 5.1961 -1.4999 0.0 0
M  V30 4 C 3.4641 -1.4999 0.0 0
M  V30 5 N 6.0621 -2.0 0.0 0
M  V30 6 C 5.1961 -0.5 0.0 0
M  V30 7 N 2.598 -1.9999 0.0 0
M  V30 8 C 3.4641 -0.5 0.0 0
M  V30 9 C 6.0621 -3.0 0.0 0
M  V30 10 C 6.9282 -1.5 0.0 0
M  V30 11 F 6.0621 0.0 0.0 0
M  V30 12 C 4.3301 0.0 0.0 0
M  V30 13 C 1.732 -1.4999 0.0 0
M  V30 14 C 2.598 -3.0 0.0 0
M  V30 15 C 2.598 0.0 0.0 0
M  V30 16 C 6.9282 -3.5 0.0 0 CFG=1
M  V30 17 C 7.7942 -2.0 0.0 0 CFG=2
M  V30 18 N 4.3301 1.0 0.0 0
M  V30 19 C 1.732 -0.5 0.0 0
M  V30 20 C 2.098 -3.866 0.0 0
M  V30 21 C 3.098 -3.866 0.0 0
M  V30 22 O 2.598 1.0 0.0 0
M  V30 23 N 7.7942 -3.0 0.0 0
M  V30 24 C 6.9282 -4.5 0.0 0
M  V30 25 C 8.6602 -1.5 0.0 0
M  V30 26 C 0.866 0.0 0.0 0
M  V30 27 O 0.866 1.0 0.0 0
M  V30 28 O 0.0 -0.5 0.0 0 CHG=-1
M  V30 END ATOM
M  V30 BEGIN BOND
M  V30 1 1 1 2
M  V30 2 2 2 3
M  V30 3 1 2 4
M  V30 4 1 3 5
M  V30 5 1 3 6
M  V30 6 1 4 7
M  V30 7 2 4 8
M  V30 8 1 5 9
M  V30 9 1 5 10
M  V30 10 1 6 11
M  V30 11 2 6 12
M  V30 12 1 7 13
M  V30 13 1 7 14
M  V30 14 1 8 15
M  V30 15 1 16 9
M  V30 16 1 17 10
M  V30 17 1 12 18
M  V30 18 2 13 19
M  V30 19 1 14 20
M  V30 20 1 14 21
M  V30 21 2 15 22
M  V30 22 1 16 23
M  V30 23 1 16 24 CFG=1
M  V30 24 1 17 25 CFG=1
M  V30 25 1 19 26
M  V30 26 2 26 27
M  V30 27 1 26 28
M  V30 28 1 8 12
M  V30 29 1 15 19
M  V30 30 1 17 23
M  V30 31 1 20 21
M  V30 END BOND
M  V30 BEGIN COLLECTION
M  V30 MDLV30/STEABS ATOMS=(2 16 17)
M  V30 END COLLECTION
M  V30 END CTAB
M  END
>  <Molecule Name>


>  <status>
DISCONTINUED

>  <cas>
110871-86-8

>  <name>
SPARFLOXACIN

>  <ID>
779

>  <Smiles>
C[C@H](C1)N[C@@H](C)CN1c(c(F)c(c1c2N(C3CC3)C=C(C([O-])=O)C1=O)N)c2F

$$$$

Actelion Java MolfileCreator 2.0

  0  0  0  0  0  0              0 V3000
M  V30 BEGIN CTAB
M  V30 COUNTS 14 14 0 0 0
M  V30 BEGIN ATOM
M  V30 1 O 5.1961 1.5 0.0 0
M  V30 2 C 4.3301 1.0 0.0 0 CFG=2
M  V30 3 C 3.4641 1.5 0.0 0 CFG=1
M  V30 4 C 4.3301 0.0 0.0 0 CFG=2
M  V30 5 O 3.4641 2.5 0.0 0
M  V30 6 C 2.598 1.0 0.0 0 CFG=1
M  V30 7 O 5.1961 -0.4999 0.0 0
M  V30 8 C 3.4641 -0.4999 0.0 0
M  V30 9 N 2.598 0.0 0.0 0
M  V30 10 C 1.732 1.4999 0.0 0
M  V30 11 C 1.732 -0.5 0.0 0
M  V30 12 O 0.866 1.0 0.0 0
M  V30 13 C 0.866 0.0 0.0 0
M  V30 14 O 0.0 -0.5 0.0 0
M  V30 END ATOM
M  V30 BEGIN BOND
M  V30 1 1 2 1 CFG=1
M  V30 2 1 3 2
M  V30 3 1 4 2
M  V30 4 1 3 5 CFG=3
M  V30 5 1 6 3
M  V30 6 1 4 7 CFG=3
M  V30 7 1 4 8
M  V30 8 1 6 9
M  V30 9 1 6 10 CFG=1
M  V30 10 1 9 11
M  V30 11 1 10 12
M  V30 12 1 11 13
M  V30 13 1 13 14
M  V30 14 1 8 9
M  V30 END BOND
M  V30 BEGIN COLLECTION
M  V30 MDLV30/STERAC1 ATOMS=(4 2 3 4 6)
M  V30 END COLLECTION
M  V30 END CTAB
M  END
>  <Molecule Name>


>  <status>
-

>  <cas>
72432-03-2

>  <name>
MIGLITOL

>  <ID>
780

>  <Smiles>
OCCN(C[C@H]([C@@H]1O)O)[C@@H](CO)[C@@H]1O

$$$$

Actelion Java MolfileCreator 2.0

  0  0  0  0  0  0              0 V3000
M  V30 BEGIN CTAB
M  V30 COUNTS 32 36 0 0 0
M  V30 BEGIN ATOM
M  V30 1 O 5.1961 2.5 0.0 0
M  V30 2 C 5.1961 1.5 0.0 0
M  V30 3 C 6.0621 1.0 0.0 0
M  V30 4 C 4.3301 1.0 0.0 0
M  V30 5 C 6.0621 0.0 0.0 0
M  V30 6 C 4.3301 0.0 0.0 0
M  V30 7 C 5.1961 -0.4999 0.0 0
M  V30 8 C 6.9282 -0.4999 0.0 0
M  V30 9 C 5.1961 -1.4999 0.0 0
M  V30 10 C 6.9282 -1.4999 0.0 0
M  V30 11 C 4.3301 -2.0 0.0 0 CFG=1
M  V30 12 C 6.0621 -1.9999 0.0 0 CFG=1
M  V30 13 C 3.4641 -1.4999 0.0 0
M  V30 14 C 4.3301 -3.0 0.0 0
M  V30 15 C 6.0621 -2.9999 0.0 0 CFG=1
M  V30 16 C 3.4641 -0.5 0.0 0
M  V30 17 C 2.598 -1.9999 0.0 0
M  V30 18 C 5.1961 -3.4999 0.0 0 CFG=1
M  V30 19 C 6.8053 -3.6691 0.0 0
M  V30 20 C 2.598 0.0 0.0 0
M  V30 21 C 1.732 -1.5 0.0 0
M  V30 22 C 5.404 -4.4781 0.0 0 CFG=2
M  V30 23 C 4.3871 -4.0877 0.0 0
M  V30 24 C 6.3985 -4.5826 0.0 0
M  V30 25 C 1.732 -0.5 0.0 0
M  V30 26 O 5.7624 -5.4117 0.0 0
M  V30 27 C 4.7349 -5.2212 0.0 0
M  V30 28 N 0.866 0.0 0.0 0
M  V30 29 C 4.0658 -5.9644 0.0 0
M  V30 30 C 0.866 1.0 0.0 0
M  V30 31 C 0.0 -0.5 0.0 0
M  V30 32 C 3.3966 -6.7075 0.0 0
M  V30 END ATOM
M  V30 BEGIN BOND
M  V30 1 2 1 2
M  V30 2 1 2 3
M  V30 3 1 2 4
M  V30 4 2 3 5
M  V30 5 1 4 6
M  V30 6 1 5 7
M  V30 7 1 5 8
M  V30 8 2 7 9
M  V30 9 1 8 10
M  V30 10 1 11 9
M  V30 11 1 12 9
M  V30 12 1 11 13 CFG=3
M  V30 13 1 11 14
M  V30 14 1 15 12
M  V30 15 2 13 16
M  V30 16 1 13 17
M  V30 17 1 18 14
M  V30 18 1 15 19 CFG=3
M  V30 19 1 16 20
M  V30 20 2 17 21
M  V30 21 1 22 18
M  V30 22 1 18 23 CFG=3
M  V30 23 1 19 24
M  V30 24 2 20 25
M  V30 25 1 22 26 CFG=3
M  V30 26 1 22 27
M  V30 27 1 25 28
M  V30 28 3 27 29
M  V30 29 1 28 30
M  V30 30 1 28 31
M  V30 31 1 29 32
M  V30 32 1 6 7
M  V30 33 1 12 10 CFG=1
M  V30 34 1 15 18
M  V30 35 1 21 25
M  V30 36 1 22 24
M  V30 END BOND
M  V30 BEGIN COLLECTION
M  V30 MDLV30/STERAC1 ATOMS=(5 11 12 15 18 22)
M  V30 END COLLECTION
M  V30 END CTAB
M  END
>  <Molecule Name>


>  <status>
-

>  <cas>
84371-65-3

>  <name>
MIFEPRISTONE

>  <ID>
781

>  <Smiles>
C[C@](C[C@@H]1c(cc2)ccc2N(C)C)([C@@H](CC2)[C@H](CC3)C1=C(CC1)C3=CC1=O)[C@@]2(C#CC)O

$$$$

Actelion Java MolfileCreator 2.0

  0  0  0  0  0  0              0 V3000
M  V30 BEGIN CTAB
M  V30 COUNTS 25 27 0 0 0
M  V30 BEGIN ATOM
M  V30 1 O 0.9436 3.8313 0.0 0
M  V30 2 C 1.8992 3.5365 0.0 0
M  V30 3 O 2.6322 4.2167 0.0 0 CHG=-1
M  V30 4 C 2.1217 2.5616 0.0 0
M  V30 5 C 3.0773 2.2668 0.0 0
M  V30 6 C 3.2998 1.2919 0.0 0
M  V30 7 C 3.8103 2.947 0.0 0
M  V30 8 C 4.2553 0.9972 0.0 0
M  V30 9 C 4.7659 2.6523 0.0 0
M  V30 10 C 4.3301 0.0 0.0 0
M  V30 11 C 4.9884 1.6773 0.0 0
M  V30 12 C 5.1563 -0.5633 0.0 0
M  V30 13 C 3.4641 -0.5 0.0 0
M  V30 14 O 5.9772 1.5283 0.0 0
M  V30 15 C 6.1119 -0.2685 0.0 0
M  V30 16 C 4.9338 -1.5382 0.0 0
M  V30 17 C 2.598 0.0 0.0 0
M  V30 18 C 6.4772 0.6623 0.0 0
M  V30 19 C 6.8449 -0.9487 0.0 0
M  V30 20 C 5.6668 -2.2184 0.0 0
M  V30 21 C 1.732 -0.5 0.0 0
M  V30 22 C 6.6224 -1.9236 0.0 0
M  V30 23 N 0.866 0.0 0.0 0
M  V30 24 C 0.866 1.0 0.0 0
M  V30 25 C 0.0 -0.5 0.0 0
M  V30 END ATOM
M  V30 BEGIN BOND
M  V30 1 2 1 2
M  V30 2 1 2 3
M  V30 3 1 2 4
M  V30 4 1 4 5
M  V30 5 2 5 6
M  V30 6 1 5 7
M  V30 7 1 6 8
M  V30 8 2 7 9
M  V30 9 1 8 10
M  V30 10 2 8 11
M  V30 11 1 10 12
M  V30 12 2 10 13
M  V30 13 1 11 14
M  V30 14 2 12 15
M  V30 15 1 12 16
M  V30 16 1 13 17
M  V30 17 1 14 18
M  V30 18 1 15 19
M  V30 19 2 16 20
M  V30 20 1 17 21
M  V30 21 2 19 22
M  V30 22 1 21 23
M  V30 23 1 23 24
M  V30 24 1 23 25
M  V30 25 1 9 11
M  V30 26 1 15 18
M  V30 27 1 20 22
M  V30 END BOND
M  V30 END CTAB
M  END
>  <Molecule Name>


>  <status>
-

>  <cas>
113806-05-6

>  <name>
OLOPATADINE

>  <ID>
782

>  <Smiles>
CN(C)CC/C=C1\c(cc(CC([O-])=O)cc2)c2OCc2c1cccc2

$$$$

Actelion Java MolfileCreator 2.0

  0  0  0  0  0  0              0 V3000
M  V30 BEGIN CTAB
M  V30 COUNTS 28 31 0 0 0
M  V30 BEGIN ATOM
M  V30 1 O 1.0934 -2.1636 0.0 0
M  V30 2 C 1.8365 -1.4945 0.0 0
M  V30 3 C 2.8147 -1.7024 0.0 0
M  V30 4 C 1.732 -0.5 0.0 0 CFG=2
M  V30 5 C 3.3147 -0.8364 0.0 0
M  V30 6 C 3.3147 -2.5684 0.0 0
M  V30 7 C 2.6455 -0.0932 0.0 0
M  V30 8 C 0.866 0.0 0.0 0
M  V30 9 C 4.3147 -0.8364 0.0 0
M  V30 10 C 4.3147 -2.5684 0.0 0
M  V30 11 C 0.0 -0.5 0.0 0
M  V30 12 C 4.8147 -1.7024 0.0 0
M  V30 13 O 4.8147 -3.4344 0.0 0
M  V30 14 C -0.866 0.0 0.0 0
M  V30 15 C 0.0 -1.4999 0.0 0
M  V30 16 O 5.8147 -1.7024 0.0 0
M  V30 17 C 5.8147 -3.4344 0.0 0
M  V30 18 C -1.732 -0.4999 0.0 0
M  V30 19 C -0.866 -1.9999 0.0 0
M  V30 20 C 6.3147 -0.8364 0.0 0
M  V30 21 N -1.732 -1.4999 0.0 0
M  V30 22 C -2.598 -1.9999 0.0 0
M  V30 23 C -2.598 -2.9999 0.0 0
M  V30 24 C -3.4641 -3.4999 0.0 0
M  V30 25 C -1.732 -3.4999 0.0 0
M  V30 26 C -3.4641 -4.4999 0.0 0
M  V30 27 C -1.732 -4.4999 0.0 0
M  V30 28 C -2.598 -4.9999 0.0 0
M  V30 END ATOM
M  V30 BEGIN BOND
M  V30 1 2 1 2
M  V30 2 1 2 3
M  V30 3 1 4 2
M  V30 4 2 3 5
M  V30 5 1 3 6
M  V30 6 1 4 7
M  V30 7 1 4 8 CFG=1
M  V30 8 1 5 9
M  V30 9 2 6 10
M  V30 10 1 8 11
M  V30 11 2 9 12
M  V30 12 1 10 13
M  V30 13 1 11 14
M  V30 14 1 11 15
M  V30 15 1 12 16
M  V30 16 1 13 17
M  V30 17 1 14 18
M  V30 18 1 15 19
M  V30 19 1 16 20
M  V30 20 1 18 21
M  V30 21 1 21 22
M  V30 22 1 22 23
M  V30 23 2 23 24
M  V30 24 1 23 25
M  V30 25 1 24 26
M  V30 26 2 25 27
M  V30 27 2 26 28
M  V30 28 1 5 7
M  V30 29 1 10 12
M  V30 30 1 19 21
M  V30 31 1 27 28
M  V30 END BOND
M  V30 BEGIN COLLECTION
M  V30 MDLV30/STERAC1 ATOMS=(1 4)
M  V30 END COLLECTION
M  V30 END CTAB
M  END
>  <Molecule Name>


>  <status>
-

>  <cas>
120014-06-4

>  <name>
DONEPEZIL

>  <ID>
783

>  <Smiles>
COc(c(OC)c1)cc(CC2CC3CCN(Cc4ccccc4)CC3)c1C2=O

$$$$

Actelion Java MolfileCreator 2.0

  0  0  0  0  0  0              0 V3000
M  V30 BEGIN CTAB
M  V30 COUNTS 26 29 0 0 0
M  V30 BEGIN ATOM
M  V30 1 F 3.4641 -4.4999 0.0 0
M  V30 2 C 3.4641 -3.4999 0.0 0
M  V30 3 C 4.3301 -3.0 0.0 0
M  V30 4 C 2.598 -2.9999 0.0 0
M  V30 5 N 5.1961 -3.5 0.0 0
M  V30 6 C 4.3301 -1.9999 0.0 0
M  V30 7 C 2.598 -2.0 0.0 0
M  V30 8 C 1.732 -3.4999 0.0 0
M  V30 9 C 5.1961 -4.5 0.0 0
M  V30 10 C 6.0621 -3.0 0.0 0
M  V30 11 C 3.4641 -1.5 0.0 0
M  V30 12 C 1.732 -1.5 0.0 0
M  V30 13 C 6.0621 -5.0 0.0 0 CFG=1
M  V30 14 C 6.9282 -3.5 0.0 0
M  V30 15 N 3.4641 -0.5 0.0 0
M  V30 16 O 0.866 -2.0 0.0 0
M  V30 17 C 1.732 -0.5 0.0 0
M  V30 18 N 6.9282 -4.5 0.0 0
M  V30 19 C 6.0621 -6.0 0.0 0
M  V30 20 C 2.598 0.0 0.0 0
M  V30 21 C 4.3301 0.0 0.0 0
M  V30 22 C 0.866 0.0 0.0 0
M  V30 23 C 5.3301 0.0 0.0 0
M  V30 24 C 4.8301 0.866 0.0 0
M  V30 25 O 0.866 1.0 0.0 0
M  V30 26 O 0.0 -0.5 0.0 0 CHG=-1
M  V30 END ATOM
M  V30 BEGIN BOND
M  V30 1 1 1 2
M  V30 2 2 2 3
M  V30 3 1 2 4
M  V30 4 1 3 5
M  V30 5 1 3 6
M  V30 6 2 4 7
M  V30 7 1 4 8
M  V30 8 1 5 9
M  V30 9 1 5 10
M  V30 10 2 6 11
M  V30 11 1 7 12
M  V30 12 1 13 9
M  V30 13 1 10 14
M  V30 14 1 11 15
M  V30 15 2 12 16
M  V30 16 1 12 17
M  V30 17 1 13 18
M  V30 18 1 13 19 CFG=1
M  V30 19 1 15 20
M  V30 20 1 15 21
M  V30 21 1 17 22
M  V30 22 1 21 23
M  V30 23 1 21 24
M  V30 24 2 22 25
M  V30 25 1 22 26
M  V30 26 1 7 11
M  V30 27 1 14 18
M  V30 28 2 17 20
M  V30 29 1 23 24
M  V30 END BOND
M  V30 BEGIN COLLECTION
M  V30 MDLV30/STERAC1 ATOMS=(1 13)
M  V30 END COLLECTION
M  V30 END CTAB
M  END
>  <Molecule Name>


>  <status>
DISCONTINUED

>  <cas>
119914-60-2

>  <name>
GREPAFLOXACIN

>  <ID>
784

>  <Smiles>
CC(C1)NCCN1c(cc(c1c2C)N(C3CC3)C=C(C([O-])=O)C1=O)c2F

$$$$

Actelion Java MolfileCreator 2.0

  0  0  0  0  0  0              0 V3000
M  V30 BEGIN CTAB
M  V30 COUNTS 6 6 0 0 0
M  V30 BEGIN ATOM
M  V30 1 N 2.4487 0.3364 0.0 0
M  V30 2 N 1.9487 1.2024 0.0 0
M  V30 3 C 1.7795 -0.4067 0.0 0
M  V30 4 C 0.9705 0.9945 0.0 0
M  V30 5 C 0.866 0.0 0.0 0
M  V30 6 C 0.0 -0.5 0.0 0
M  V30 END ATOM
M  V30 BEGIN BOND
M  V30 1 1 1 2
M  V30 2 2 1 3
M  V30 3 1 2 4
M  V30 4 1 3 5
M  V30 5 1 5 6
M  V30 6 2 4 5
M  V30 END BOND
M  V30 END CTAB
M  END
>  <Molecule Name>


>  <status>
-

>  <cas>
7554-65-6

>  <name>
FOMEPIZOLE

>  <ID>
785

>  <Smiles>
Cc1c[nH]nc1

$$$$

Actelion Java MolfileCreator 2.0

  0  0  0  0  0  0              0 V3000
M  V30 BEGIN CTAB
M  V30 COUNTS 20 21 0 0 0
M  V30 BEGIN ATOM
M  V30 1 O 1.732 -0.5 0.0 0
M  V30 2 N 0.866 0.0 0.0 0 CHG=1
M  V30 3 O 0.866 1.0 0.0 0 CHG=-1
M  V30 4 C 0.0 -0.5 0.0 0
M  V30 5 C -0.866 0.0 0.0 0
M  V30 6 C 0.0 -1.4999 0.0 0
M  V30 7 O -0.866 1.0 0.0 0
M  V30 8 C -1.732 -0.4999 0.0 0
M  V30 9 C -0.866 -1.9999 0.0 0
M  V30 10 O -2.598 0.0 0.0 0
M  V30 11 C -1.732 -1.4999 0.0 0
M  V30 12 C -0.866 -2.9999 0.0 0
M  V30 13 O -1.732 -3.4999 0.0 0
M  V30 14 C 0.0 -3.4999 0.0 0
M  V30 15 C 0.0 -4.4999 0.0 0
M  V30 16 C 0.866 -3.0 0.0 0
M  V30 17 C 0.866 -5.0 0.0 0
M  V30 18 C 1.732 -3.5 0.0 0
M  V30 19 C 1.732 -4.5 0.0 0
M  V30 20 C 2.598 -5.0 0.0 0
M  V30 END ATOM
M  V30 BEGIN BOND
M  V30 1 2 1 2
M  V30 2 1 2 3
M  V30 3 1 2 4
M  V30 4 2 4 5
M  V30 5 1 4 6
M  V30 6 1 5 7
M  V30 7 1 5 8
M  V30 8 2 6 9
M  V30 9 1 8 10
M  V30 10 2 8 11
M  V30 11 1 9 12
M  V30 12 2 12 13
M  V30 13 1 12 14
M  V30 14 2 14 15
M  V30 15 1 14 16
M  V30 16 1 15 17
M  V30 17 2 16 18
M  V30 18 2 17 19
M  V30 19 1 19 20
M  V30 20 1 9 11
M  V30 21 1 18 19
M  V30 END BOND
M  V30 END CTAB
M  END
>  <Molecule Name>


>  <status>
-

>  <cas>
134308-13-7

>  <name>
TOLCAPONE

>  <ID>
786

>  <Smiles>
Cc(cc1)ccc1C(c(cc1O)cc([N+]([O-])=O)c1O)=O

$$$$
_c001
Actelion Java MolfileCreator 2.0

  0  0  0  0  0  0              0 V3000
M  V30 BEGIN CTAB
M  V30 COUNTS 41 44 0 0 0
M  V30 BEGIN ATOM
M  V30 1 F 8.6733 3.8193 0.0 0
M  V30 2 C 8.4654 2.8411 0.0 0
M  V30 3 C 7.5144 2.5321 0.0 0
M  V30 4 C 9.2086 2.172 0.0 0
M  V30 5 C 7.3065 1.554 0.0 0
M  V30 6 C 9.0007 1.1939 0.0 0
M  V30 7 C 8.0496 0.8848 0.0 0
M  V30 8 C 7.8417 -0.0932 0.0 0
M  V30 9 N 6.9282 -0.5 0.0 0
M  V30 10 C 8.5108 -0.8364 0.0 0
M  V30 11 C 7.0327 -1.4945 0.0 0
M  V30 12 C 6.0621 0.0 0.0 0
M  V30 13 C 9.5054 -0.7318 0.0 0
M  V30 14 C 8.0108 -1.7024 0.0 0
M  V30 15 C 6.2895 -2.1636 0.0 0
M  V30 16 C 5.1961 -0.5 0.0 0
M  V30 17 C 10.0931 -1.5408 0.0 0
M  V30 18 C 9.9121 0.1816 0.0 0
M  V30 19 C 8.4176 -2.6159 0.0 0
M  V30 20 C 5.3385 -1.8546 0.0 0
M  V30 21 C 6.4974 -3.1418 0.0 0
M  V30 22 C 4.3301 0.0 0.0 0 CFG=2
M  V30 23 C 11.0877 -1.4363 0.0 0
M  V30 24 C 10.9066 0.2861 0.0 0
M  V30 25 O 9.4121 -2.7205 0.0 0
M  V30 26 N 7.8298 -3.4249 0.0 0
M  V30 27 O 4.3301 1.0 0.0 0
M  V30 28 C 3.4641 -0.5 0.0 0
M  V30 29 C 11.4944 -0.5228 0.0 0
M  V30 30 C 8.2365 -4.3385 0.0 0
M  V30 31 C 2.598 0.0 0.0 0 CFG=2
M  V30 32 C 7.6487 -5.1475 0.0 0
M  V30 33 C 9.231 -4.443 0.0 0
M  V30 34 O 2.598 1.0 0.0 0
M  V30 35 C 1.732 -0.5 0.0 0
M  V30 36 C 8.0555 -6.0611 0.0 0
M  V30 37 C 9.6378 -5.3566 0.0 0
M  V30 38 C 0.866 0.0 0.0 0
M  V30 39 C 9.05 -6.1656 0.0 0
M  V30 40 O 0.866 1.0 0.0 0
M  V30 41 O 0.0 -0.5 0.0 0 CHG=-1
M  V30 END ATOM
M  V30 BEGIN BOND
M  V30 1 1 1 2
M  V30 2 2 2 3
M  V30 3 1 2 4
M  V30 4 1 3 5
M  V30 5 2 4 6
M  V30 6 2 5 7
M  V30 7 1 7 8
M  V30 8 1 8 9
M  V30 9 2 8 10
M  V30 10 1 9 11
M  V30 11 1 9 12
M  V30 12 1 10 13
M  V30 13 1 10 14
M  V30 14 1 11 15
M  V30 15 1 12 16
M  V30 16 2 13 17
M  V30 17 1 13 18
M  V30 18 1 14 19
M  V30 19 1 15 20
M  V30 20 1 15 21
M  V30 21 1 22 16
M  V30 22 1 17 23
M  V30 23 2 18 24
M  V30 24 2 19 25
M  V30 25 1 19 26
M  V30 26 1 22 27 CFG=1
M  V30 27 1 22 28
M  V30 28 2 23 29
M  V30 29 1 26 30
M  V30 30 1 31 28
M  V30 31 2 30 32
M  V30 32 1 30 33
M  V30 33 1 31 34 CFG=1
M  V30 34 1 31 35
M  V30 35 1 32 36
M  V30 36 2 33 37
M  V30 37 1 35 38
M  V30 38 2 36 39
M  V30 39 2 38 40
M  V30 40 1 38 41
M  V30 41 1 6 7
M  V30 42 2 11 14
M  V30 43 1 24 29
M  V30 44 1 37 39
M  V30 END BOND
M  V30 BEGIN COLLECTION
M  V30 MDLV30/STERAC1 ATOMS=(2 22 31)
M  V30 END COLLECTION
M  V30 END CTAB
M  END
>  <Molecule Name>
_c001

>  <status>
-

>  <cas>
134523-00-5

>  <name>
ATORVASTATIN

>  <ID>
787

>  <Smiles>
CC(C)c1c(C(Nc2ccccc2)=O)c(-c2ccccc2)c(-c(cc2)ccc2F)n1CC[C@@H](C[C@@H](CC([O-])=O)O)O

$$$$

Actelion Java MolfileCreator 2.0

  0  0  0  0  0  0              0 V3000
M  V30 BEGIN CTAB
M  V30 COUNTS 19 20 0 0 0
M  V30 BEGIN ATOM
M  V30 1 S 2.598 0.0 0.0 0 CFG=2
M  V30 2 O 2.598 1.0 0.0 0
M  V30 3 C 3.4641 -0.5 0.0 0
M  V30 4 C 1.732 -0.5 0.0 0
M  V30 5 C 4.3301 0.0 0.0 0
M  V30 6 C 3.4641 -1.5 0.0 0
M  V30 7 C 0.866 0.0 0.0 0
M  V30 8 C 5.1961 -0.4999 0.0 0
M  V30 9 C 4.3301 0.9999 0.0 0
M  V30 10 C 2.598 -1.9999 0.0 0
M  V30 11 C 4.3301 -2.0 0.0 0
M  V30 12 O 0.866 1.0 0.0 0
M  V30 13 N 0.0 -0.5 0.0 0
M  V30 14 C 6.0621 0.0 0.0 0
M  V30 15 C 5.1961 1.4999 0.0 0
M  V30 16 C 2.598 -2.9999 0.0 0
M  V30 17 C 4.3301 -3.0 0.0 0
M  V30 18 C 6.0621 1.0 0.0 0
M  V30 19 C 3.4641 -3.5 0.0 0
M  V30 END ATOM
M  V30 BEGIN BOND
M  V30 1 2 1 2
M  V30 2 1 1 3
M  V30 3 1 1 4 CFG=3
M  V30 4 1 3 5
M  V30 5 1 3 6
M  V30 6 1 4 7
M  V30 7 2 5 8
M  V30 8 1 5 9
M  V30 9 2 6 10
M  V30 10 1 6 11
M  V30 11 2 7 12
M  V30 12 1 7 13
M  V30 13 1 8 14
M  V30 14 2 9 15
M  V30 15 1 10 16
M  V30 16 2 11 17
M  V30 17 2 14 18
M  V30 18 2 16 19
M  V30 19 1 15 18
M  V30 20 1 17 19
M  V30 END BOND
M  V30 BEGIN COLLECTION
M  V30 MDLV30/STERAC1 ATOMS=(1 1)
M  V30 END COLLECTION
M  V30 END CTAB
M  END
>  <Molecule Name>


>  <status>
-

>  <cas>
68693-11-8

>  <name>
MODAFINIL

>  <ID>
788

>  <Smiles>
NC(CS(C(c1ccccc1)c1ccccc1)=O)=O

$$$$

Actelion Java MolfileCreator 2.0

  0  0  0  0  0  0              0 V3000
M  V30 BEGIN CTAB
M  V30 COUNTS 57 60 0 0 0
M  V30 BEGIN ATOM
M  V30 1 S 7.6275 5.1338 0.0 0
M  V30 2 S 6.7976 4.5759 0.0 0
M  V30 3 C 8.5771 5.4472 0.0 0
M  V30 4 C 6.149 3.8148 0.0 0
M  V30 5 C 9.5761 5.4927 0.0 0 CFG=2
M  V30 6 C 5.7298 2.9069 0.0 0
M  V30 7 N 10.5503 5.267 0.0 0
M  V30 8 C 9.667 6.4885 0.0 0
M  V30 9 C 5.5711 1.9195 0.0 0
M  V30 10 C 11.4274 4.7868 0.0 0
M  V30 11 O 10.5749 6.9077 0.0 0
M  V30 12 N 8.85 7.0652 0.0 0
M  V30 13 O 4.5714 1.9423 0.0 0
M  V30 14 N 5.6847 0.926 0.0 0
M  V30 15 O 12.0226 5.5905 0.0 0
M  V30 16 C 12.1425 4.0878 0.0 0 CFG=1
M  V30 17 C 6.0621 0.0 0.0 0 CFG=2
M  V30 18 N 12.6425 3.2218 0.0 0
M  V30 19 C 12.8117 4.831 0.0 0
M  V30 20 C 6.6754 -0.7898 0.0 0
M  V30 21 C 5.1961 -0.5 0.0 0
M  V30 22 C 12.8904 2.253 0.0 0
M  V30 23 C 13.6207 3.4297 0.0 0
M  V30 24 C 13.7252 4.4242 0.0 0
M  V30 25 O 5.9764 -1.5049 0.0 0
M  V30 26 N 7.479 -1.385 0.0 0
M  V30 27 C 4.3301 0.0 0.0 0
M  V30 28 O 13.8839 2.3666 0.0 0
M  V30 29 C 12.8676 1.2533 0.0 0 CFG=1
M  V30 30 C 8.4134 -1.7412 0.0 0
M  V30 31 C 3.4641 -0.5 0.0 0
M  V30 32 N 12.5759 0.2967 0.0 0
M  V30 33 C 13.8549 1.0946 0.0 0
M  V30 34 C 9.4093 -1.8321 0.0 0
M  V30 35 C 2.598 0.0 0.0 0
M  V30 36 C 12.037 -0.5455 0.0 0
M  V30 37 C 14.2112 0.1602 0.0 0
M  V30 38 O 9.4548 -2.8311 0.0 0
M  V30 39 N 10.3927 -1.651 0.0 0
M  V30 40 N 1.732 -0.5 0.0 0
M  V30 41 O 12.7982 -1.1941 0.0 0
M  V30 42 C 11.2909 -1.2113 0.0 0 CFG=1
M  V30 43 C 15.1765 -0.1007 0.0 0
M  V30 44 C 13.6646 -0.6771 0.0 0
M  V30 45 C 0.866 0.0 0.0 0
M  V30 46 C 11.8488 -2.0412 0.0 0
M  V30 47 C 15.2266 -1.0995 0.0 0
M  V30 48 C 16.0164 0.4419 0.0 0
M  V30 49 N 14.2922 -1.4557 0.0 0
M  V30 50 N 0.866 1.0 0.0 0
M  V30 51 N 0.0 -0.5 0.0 0
M  V30 52 C 11.4091 -2.9393 0.0 0
M  V30 53 C 16.1165 -1.5555 0.0 0
M  V30 54 C 16.9064 -0.014 0.0 0
M  V30 55 O 10.4114 -3.0075 0.0 0
M  V30 56 O 11.967 -3.7692 0.0 0 CHG=-1
M  V30 57 C 16.9564 -1.0128 0.0 0
M  V30 END ATOM
M  V30 BEGIN BOND
M  V30 1 1 1 2
M  V30 2 1 1 3
M  V30 3 1 2 4
M  V30 4 1 5 3
M  V30 5 1 4 6
M  V30 6 1 5 7
M  V30 7 1 5 8 CFG=1
M  V30 8 1 6 9
M  V30 9 1 7 10
M  V30 10 2 8 11
M  V30 11 1 8 12
M  V30 12 2 9 13
M  V30 13 1 9 14
M  V30 14 2 10 15
M  V30 15 1 16 10
M  V30 16 1 17 14
M  V30 17 1 16 18 CFG=3
M  V30 18 1 16 19
M  V30 19 1 17 20
M  V30 20 1 17 21 CFG=3
M  V30 21 1 18 22
M  V30 22 1 18 23
M  V30 23 1 19 24
M  V30 24 2 20 25
M  V30 25 1 20 26
M  V30 26 1 21 27
M  V30 27 2 22 28
M  V30 28 1 29 22
M  V30 29 1 26 30
M  V30 30 1 27 31
M  V30 31 1 29 32
M  V30 32 1 29 33 CFG=3
M  V30 33 1 30 34
M  V30 34 1 31 35
M  V30 35 1 32 36
M  V30 36 1 33 37
M  V30 37 2 34 38
M  V30 38 1 34 39
M  V30 39 1 35 40
M  V30 40 2 36 41
M  V30 41 1 42 36
M  V30 42 1 37 43
M  V30 43 2 37 44
M  V30 44 2 40 45
M  V30 45 1 42 46 CFG=3
M  V30 46 2 43 47
M  V30 47 1 43 48
M  V30 48 1 44 49
M  V30 49 1 45 50
M  V30 50 1 45 51
M  V30 51 1 46 52
M  V30 52 1 47 53
M  V30 53 2 48 54
M  V30 54 2 52 55
M  V30 55 1 52 56
M  V30 56 2 53 57
M  V30 57 1 23 24
M  V30 58 1 39 42
M  V30 59 1 47 49
M  V30 60 1 54 57
M  V30 END BOND
M  V30 BEGIN COLLECTION
M  V30 MDLV30/STERAC1 ATOMS=(5 5 16 17 29 42)
M  V30 END COLLECTION
M  V30 END CTAB
M  END
>  <Molecule Name>


>  <status>
-

>  <cas>
148031-34-9

>  <name>
EPTIFIBATIDE

>  <ID>
789

>  <Smiles>
NC([C@H](CSSCCC(N[C@@H](CCCCN=C(N)N)C(NCC(N[C@@H](CC([O-])=O)C(N[C@@H](Cc1c[nH]c2c1cccc2)C(N1[C@H]2CCC1)=O)=O)=O)=O)=O)NC2=O)=O

$$$$

Actelion Java MolfileCreator 2.0

  0  0  0  0  0  0              0 V3000
M  V30 BEGIN CTAB
M  V30 COUNTS 31 34 0 0 0
M  V30 BEGIN ATOM
M  V30 1 S 6.1667 0.0054 0.0 0
M  V30 2 C 7.1448 -0.2024 0.0 0
M  V30 3 C 6.0621 1.0 0.0 0 CFG=2
M  V30 4 O 7.5515 -1.1159 0.0 0
M  V30 5 N 7.6448 0.6635 0.0 0
M  V30 6 C 6.9757 1.4067 0.0 0
M  V30 7 C 5.1961 1.5 0.0 0
M  V30 8 O 7.1836 2.3848 0.0 0
M  V30 9 C 4.3301 1.0 0.0 0
M  V30 10 C 3.4641 1.5 0.0 0
M  V30 11 C 4.3301 0.0 0.0 0
M  V30 12 C 2.598 0.9999 0.0 0
M  V30 13 C 3.4641 -0.4999 0.0 0
M  V30 14 C 2.598 0.0 0.0 0
M  V30 15 O 1.732 -0.5 0.0 0
M  V30 16 C 0.866 0.0 0.0 0
M  V30 17 C 0.0 -0.5 0.0 0 CFG=2
M  V30 18 O -0.866 0.0 0.0 0
M  V30 19 C 0.0 -1.4999 0.0 0
M  V30 20 C 0.866 -1.0 0.0 0
M  V30 21 C -1.732 -0.4999 0.0 0
M  V30 22 C -0.866 -1.9999 0.0 0
M  V30 23 C -1.732 -1.4999 0.0 0
M  V30 24 C -2.598 0.0 0.0 0
M  V30 25 C -2.598 -1.9999 0.0 0
M  V30 26 C -3.4641 -0.4999 0.0 0
M  V30 27 C -2.598 1.0 0.0 0
M  V30 28 C -3.4641 -1.4999 0.0 0
M  V30 29 C -2.598 -2.9999 0.0 0
M  V30 30 C -4.3301 0.0 0.0 0
M  V30 31 O -4.3301 -1.9999 0.0 0
M  V30 END ATOM
M  V30 BEGIN BOND
M  V30 1 1 1 2
M  V30 2 1 3 1
M  V30 3 2 2 4
M  V30 4 1 2 5
M  V30 5 1 3 6
M  V30 6 1 3 7 CFG=1
M  V30 7 2 6 8
M  V30 8 1 7 9
M  V30 9 2 9 10
M  V30 10 1 9 11
M  V30 11 1 10 12
M  V30 12 2 11 13
M  V30 13 2 12 14
M  V30 14 1 14 15
M  V30 15 1 15 16
M  V30 16 1 17 16
M  V30 17 1 17 18
M  V30 18 1 17 19
M  V30 19 1 17 20 CFG=3
M  V30 20 1 18 21
M  V30 21 1 19 22
M  V30 22 2 21 23
M  V30 23 1 21 24
M  V30 24 1 23 25
M  V30 25 2 24 26
M  V30 26 1 24 27
M  V30 27 2 25 28
M  V30 28 1 25 29
M  V30 29 1 26 30
M  V30 30 1 28 31
M  V30 31 1 5 6
M  V30 32 1 13 14
M  V30 33 1 22 23
M  V30 34 1 26 28
M  V30 END BOND
M  V30 BEGIN COLLECTION
M  V30 MDLV30/STERAC1 ATOMS=(2 3 17)
M  V30 END COLLECTION
M  V30 END CTAB
M  END
>  <Molecule Name>


>  <status>
DISCONTINUED

>  <cas>
97322-87-7

>  <name>
TROGLITAZONE

>  <ID>
790

>  <Smiles>
C[C@](COc1ccc(C[C@@H](C(N2)=O)SC2=O)cc1)(CC1)Oc(c(C)c2C)c1c(C)c2O

$$$$

Actelion Java MolfileCreator 2.0

  0  0  0  0  0  0              0 V3000
M  V30 BEGIN CTAB
M  V30 COUNTS 18 20 0 0 0
M  V30 BEGIN ATOM
M  V30 1 N 5.4679 -0.8225 0.0 0
M  V30 2 C 5.1588 0.1284 0.0 0
M  V30 3 C 4.7987 -1.5657 0.0 0
M  V30 4 N 5.828 0.8716 0.0 0
M  V30 5 C 4.1807 0.3364 0.0 0
M  V30 6 C 3.8206 -1.3577 0.0 0
M  V30 7 C 5.1078 -2.5167 0.0 0
M  V30 8 N 3.6807 1.2024 0.0 0
M  V30 9 C 3.5116 -0.4067 0.0 0
M  V30 10 C 3.1515 -2.1009 0.0 0
M  V30 11 C 4.4386 -3.2599 0.0 0
M  V30 12 C 2.7026 0.9945 0.0 0
M  V30 13 N 2.598 0.0 0.0 0
M  V30 14 C 3.4605 -3.0519 0.0 0
M  V30 15 C 1.732 -0.5 0.0 0
M  V30 16 C 0.866 0.0 0.0 0
M  V30 17 C 0.866 1.0 0.0 0
M  V30 18 C 0.0 -0.5 0.0 0
M  V30 END ATOM
M  V30 BEGIN BOND
M  V30 1 2 1 2
M  V30 2 1 1 3
M  V30 3 1 2 4
M  V30 4 1 2 5
M  V30 5 1 3 6
M  V30 6 2 3 7
M  V30 7 1 5 8
M  V30 8 2 5 9
M  V30 9 2 6 10
M  V30 10 1 7 11
M  V30 11 2 8 12
M  V30 12 1 9 13
M  V30 13 1 10 14
M  V30 14 1 13 15
M  V30 15 1 15 16
M  V30 16 1 16 17
M  V30 17 1 16 18
M  V30 18 1 6 9
M  V30 19 2 11 14
M  V30 20 1 12 13
M  V30 END BOND
M  V30 END CTAB
M  END
>  <Molecule Name>


>  <status>
-

>  <cas>
99011-02-6

>  <name>
IMIQUIMOD

>  <ID>
791

>  <Smiles>
CC(C)Cn1c(c2ccccc2nc2N)c2nc1

$$$$

Actelion Java MolfileCreator 2.0

  0  0  0  0  0  0              0 V3000
M  V30 BEGIN CTAB
M  V30 COUNTS 22 24 0 0 0
M  V30 BEGIN ATOM
M  V30 1 N 5.1961 -2.4999 0.0 0
M  V30 2 C 4.3301 -1.9999 0.0 0
M  V30 3 C 3.4641 -1.4999 0.0 0
M  V30 4 C 3.4641 -0.5 0.0 0
M  V30 5 C 2.598 -1.9999 0.0 0
M  V30 6 C 2.598 0.0 0.0 0
M  V30 7 C 1.732 -1.5 0.0 0
M  V30 8 C 1.732 -0.5 0.0 0
M  V30 9 C 0.866 0.0 0.0 0
M  V30 10 N 0.866 1.0 0.0 0
M  V30 11 C 0.0 -0.5 0.0 0
M  V30 12 N 1.675 1.5877 0.0 0
M  V30 13 C 0.057 1.5877 0.0 0
M  V30 14 C -0.866 0.0 0.0 0
M  V30 15 C 0.0 -1.4999 0.0 0
M  V30 16 C 1.366 2.5388 0.0 0
M  V30 17 N 0.366 2.5388 0.0 0
M  V30 18 C -1.732 -0.4999 0.0 0
M  V30 19 C -0.866 -1.9999 0.0 0
M  V30 20 C -1.732 -1.4999 0.0 0
M  V30 21 C -2.598 -1.9999 0.0 0
M  V30 22 N -3.4641 -2.4999 0.0 0
M  V30 END ATOM
M  V30 BEGIN BOND
M  V30 1 3 1 2
M  V30 2 1 2 3
M  V30 3 2 3 4
M  V30 4 1 3 5
M  V30 5 1 4 6
M  V30 6 2 5 7
M  V30 7 2 6 8
M  V30 8 1 8 9
M  V30 9 1 9 10
M  V30 10 1 9 11
M  V30 11 1 10 12
M  V30 12 1 10 13
M  V30 13 2 11 14
M  V30 14 1 11 15
M  V30 15 2 12 16
M  V30 16 2 13 17
M  V30 17 1 14 18
M  V30 18 2 15 19
M  V30 19 2 18 20
M  V30 20 1 20 21
M  V30 21 3 21 22
M  V30 22 1 7 8
M  V30 23 1 16 17
M  V30 24 1 19 20
M  V30 END BOND
M  V30 END CTAB
M  END
>  <Molecule Name>


>  <status>
-

>  <cas>
112809-51-5

>  <name>
LETROZOLE

>  <ID>
792

>  <Smiles>
N#Cc1ccc(C(c(cc2)ccc2C#N)n2ncnc2)cc1

$$$$

Actelion Java MolfileCreator 2.0

  0  0  0  0  0  0              0 V3000
M  V30 BEGIN CTAB
M  V30 COUNTS 33 34 0 0 0
M  V30 BEGIN ATOM
M  V30 1 F 7.7942 4.0 0.0 0
M  V30 2 C 7.7942 3.0 0.0 0
M  V30 3 C 6.9282 2.5 0.0 0
M  V30 4 C 8.6602 2.4999 0.0 0
M  V30 5 C 6.9282 1.5 0.0 0
M  V30 6 C 8.6602 1.4999 0.0 0
M  V30 7 C 7.7942 0.9999 0.0 0
M  V30 8 C 7.7942 0.0 0.0 0
M  V30 9 C 6.9282 -0.5 0.0 0
M  V30 10 C 8.6602 -0.4999 0.0 0
M  V30 11 C 6.9282 -1.4999 0.0 0
M  V30 12 C 6.0621 0.0 0.0 0
M  V30 13 C 8.6602 -1.4999 0.0 0
M  V30 14 C 9.5262 0.0 0.0 0
M  V30 15 N 7.7942 -2.0 0.0 0
M  V30 16 C 6.0621 -2.0 0.0 0
M  V30 17 C 5.1961 -0.5 0.0 0
M  V30 18 C 9.5262 -1.9999 0.0 0
M  V30 19 O 10.3923 -0.4999 0.0 0
M  V30 20 C 5.1961 -1.4999 0.0 0
M  V30 21 C 6.0621 -2.9999 0.0 0
M  V30 22 C 4.3301 0.0 0.0 0 CFG=1
M  V30 23 C 9.5262 -2.9999 0.0 0
M  V30 24 C 10.3923 -1.4999 0.0 0
M  V30 25 C 11.2583 0.0 0.0 0
M  V30 26 O 4.3301 1.0 0.0 0
M  V30 27 C 3.4641 -0.5 0.0 0
M  V30 28 C 2.598 0.0 0.0 0 CFG=1
M  V30 29 O 2.598 1.0 0.0 0
M  V30 30 C 1.732 -0.5 0.0 0
M  V30 31 C 0.866 0.0 0.0 0
M  V30 32 O 0.866 1.0 0.0 0
M  V30 33 O 0.0 -0.5 0.0 0 CHG=-1
M  V30 END ATOM
M  V30 BEGIN BOND
M  V30 1 1 1 2
M  V30 2 2 2 3
M  V30 3 1 2 4
M  V30 4 1 3 5
M  V30 5 2 4 6
M  V30 6 2 5 7
M  V30 7 1 7 8
M  V30 8 2 8 9
M  V30 9 1 8 10
M  V30 10 1 9 11
M  V30 11 1 9 12
M  V30 12 2 10 13
M  V30 13 1 10 14
M  V30 14 2 11 15
M  V30 15 1 11 16
M  V30 16 2 12 17
M  V30 17 1 13 18
M  V30 18 1 14 19
M  V30 19 1 16 20
M  V30 20 1 16 21
M  V30 21 1 22 17
M  V30 22 1 18 23
M  V30 23 1 18 24
M  V30 24 1 19 25
M  V30 25 1 22 26 CFG=3
M  V30 26 1 22 27
M  V30 27 1 28 27
M  V30 28 1 28 29 CFG=3
M  V30 29 1 28 30
M  V30 30 1 30 31
M  V30 31 2 31 32
M  V30 32 1 31 33
M  V30 33 1 6 7
M  V30 34 1 13 15
M  V30 END BOND
M  V30 BEGIN COLLECTION
M  V30 MDLV30/STERAC1 ATOMS=(2 22 28)
M  V30 END COLLECTION
M  V30 END CTAB
M  END
>  <Molecule Name>


>  <status>
DISCONTINUED

>  <cas>
145599-86-6

>  <name>
CERIVASTATIN

>  <ID>
793

>  <Smiles>
CC(C)c1c(COC)c(-c(cc2)ccc2F)c(/C=C/[C@H](C[C@H](CC([O-])=O)O)O)c(C(C)C)n1

$$$$

Actelion Java MolfileCreator 2.0

  0  0  0  0  0  0              0 V3000
M  V30 BEGIN CTAB
M  V30 COUNTS 33 35 0 0 0
M  V30 BEGIN ATOM
M  V30 1 O 9.5262 0.9999 0.0 0
M  V30 2 C 8.6602 1.4999 0.0 0
M  V30 3 O 8.6602 2.4999 0.0 0 CHG=-1
M  V30 4 C 7.7942 0.9999 0.0 0
M  V30 5 C 6.9282 1.4999 0.0 0
M  V30 6 C 7.7942 0.0 0.0 0
M  V30 7 O 6.9282 2.4999 0.0 0
M  V30 8 C 6.0621 0.9999 0.0 0
M  V30 9 C 6.9282 -0.5 0.0 0
M  V30 10 C 7.7942 2.9999 0.0 0
M  V30 11 C 6.0621 0.0 0.0 0
M  V30 12 C 7.7942 3.9999 0.0 0
M  V30 13 C 5.1961 -0.5 0.0 0
M  V30 14 C 4.3301 0.0 0.0 0
M  V30 15 O 4.3301 1.0 0.0 0
M  V30 16 N 3.4641 -0.5 0.0 0
M  V30 17 C 2.598 0.0 0.0 0 CFG=2
M  V30 18 C 2.598 1.0 0.0 0
M  V30 19 C 1.732 -0.5 0.0 0
M  V30 20 C 1.732 1.4999 0.0 0
M  V30 21 C 3.4641 1.5 0.0 0
M  V30 22 C 1.732 -1.5 0.0 0
M  V30 23 N 0.866 0.9999 0.0 0
M  V30 24 C 1.732 2.4999 0.0 0
M  V30 25 C 3.4641 2.5 0.0 0
M  V30 26 C 2.598 -2.0 0.0 0
M  V30 27 C 0.866 -2.0 0.0 0
M  V30 28 C 0.866 0.0 0.0 0
M  V30 29 C 0.0 1.4999 0.0 0
M  V30 30 C 2.598 3.0 0.0 0
M  V30 31 C 0.0 -0.5 0.0 0
M  V30 32 C -0.866 0.9999 0.0 0
M  V30 33 C -0.866 0.0 0.0 0
M  V30 END ATOM
M  V30 BEGIN BOND
M  V30 1 2 1 2
M  V30 2 1 2 3
M  V30 3 1 2 4
M  V30 4 2 4 5
M  V30 5 1 4 6
M  V30 6 1 5 7
M  V30 7 1 5 8
M  V30 8 2 6 9
M  V30 9 1 7 10
M  V30 10 2 8 11
M  V30 11 1 10 12
M  V30 12 1 11 13
M  V30 13 1 13 14
M  V30 14 2 14 15
M  V30 15 1 14 16
M  V30 16 1 17 16 CFG=1
M  V30 17 1 17 18
M  V30 18 1 17 19
M  V30 19 2 18 20
M  V30 20 1 18 21
M  V30 21 1 19 22
M  V30 22 1 20 23
M  V30 23 1 20 24
M  V30 24 2 21 25
M  V30 25 1 22 26
M  V30 26 1 22 27
M  V30 27 1 23 28
M  V30 28 1 23 29
M  V30 29 2 24 30
M  V30 30 1 28 31
M  V30 31 1 29 32
M  V30 32 1 31 33
M  V30 33 1 9 11
M  V30 34 1 25 30
M  V30 35 1 32 33
M  V30 END BOND
M  V30 BEGIN COLLECTION
M  V30 MDLV30/STERAC1 ATOMS=(1 17)
M  V30 END COLLECTION
M  V30 END CTAB
M  END
>  <Molecule Name>


>  <status>
-

>  <cas>
135062-02-1

>  <name>
REPAGLINIDE

>  <ID>
794

>  <Smiles>
CCOc(cc(CC(NC(CC(C)C)c(cccc1)c1N1CCCCC1)=O)cc1)c1C([O-])=O

$$$$

Actelion Java MolfileCreator 2.0

  0  0  0  0  0  0              0 V3000
M  V30 BEGIN CTAB
M  V30 COUNTS 22 25 0 0 0
M  V30 BEGIN ATOM
M  V30 1 O 2.2397 8.9506 0.0 0
M  V30 2 C 2.083 7.4589 0.0 0
M  V30 3 C 3.2965 6.5772 0.0 0
M  V30 4 C 0.7126 6.8488 0.0 0
M  V30 5 C 3.1397 5.0854 0.0 0
M  V30 6 C 0.5558 5.357 0.0 0
M  V30 7 C 4.3532 4.2037 0.0 0
M  V30 8 C 1.7694 4.4753 0.0 0 CFG=2
M  V30 9 C 5.7235 4.8138 0.0 0
M  V30 10 C 4.1964 2.7119 0.0 0
M  V30 11 C 1.6126 2.9835 0.0 0 CFG=2
M  V30 12 C 0.399 3.8652 0.0 0
M  V30 13 C 2.8261 2.1018 0.0 0 CFG=2
M  V30 14 C 0.2423 2.3734 0.0 0
M  V30 15 C 2.6693 0.6101 0.0 0 CFG=1
M  V30 16 C 0.0855 0.8816 0.0 0
M  V30 17 C 1.299 0.0 0.0 0 CFG=2
M  V30 18 C 3.673 -0.5046 0.0 0
M  V30 19 C 1.4558 -1.4917 0.0 0
M  V30 20 C 0.0 -0.75 0.0 0
M  V30 21 C 2.923 -1.8036 0.0 0
M  V30 22 O 0.3411 -2.4954 0.0 0
M  V30 END ATOM
M  V30 BEGIN BOND
M  V30 1 2 1 2
M  V30 2 1 2 3
M  V30 3 1 2 4
M  V30 4 2 3 5
M  V30 5 2 4 6
M  V30 6 1 5 7
M  V30 7 1 8 5
M  V30 8 2 7 9
M  V30 9 1 7 10
M  V30 10 1 11 8
M  V30 11 1 8 12 CFG=3
M  V30 12 1 13 10 CFG=1
M  V30 13 1 11 14 CFG=3
M  V30 14 1 15 13
M  V30 15 1 14 16
M  V30 16 1 17 15
M  V30 17 1 15 18 CFG=3
M  V30 18 1 17 19
M  V30 19 1 17 20 CFG=3
M  V30 20 1 18 21
M  V30 21 2 19 22
M  V30 22 1 6 8
M  V30 23 1 11 13
M  V30 24 1 16 17
M  V30 25 1 19 21
M  V30 END BOND
M  V30 BEGIN COLLECTION
M  V30 MDLV30/STERAC1 ATOMS=(5 8 11 13 15 17)
M  V30 END COLLECTION
M  V30 END CTAB
M  END
>  <Molecule Name>


>  <status>
-

>  <cas>
107868-30-4

>  <name>
EXEMESTANE

>  <ID>
795

>  <Smiles>
C[C@](CC1)([C@@H](CC2)[C@H](CC3=C)[C@H]1[C@@](C)(C=C1)C3=CC1=O)C2=O

$$$$

Actelion Java MolfileCreator 2.0

  0  0  0  0  0  0              0 V3000
M  V30 BEGIN CTAB
M  V30 COUNTS 32 36 0 0 0
M  V30 BEGIN ATOM
M  V30 1 O 6.0412 -0.7318 0.0 0
M  V30 2 C 5.0467 -0.8364 0.0 0
M  V30 3 N 4.3776 -0.0932 0.0 0
M  V30 4 C 4.5467 -1.7024 0.0 0
M  V30 5 C 3.4641 -0.5 0.0 0
M  V30 6 C 4.5855 0.8848 0.0 0
M  V30 7 N 3.5686 -1.4945 0.0 0
M  V30 8 C 4.0467 -2.5684 0.0 0
M  V30 9 C 5.5249 -1.9103 0.0 0
M  V30 10 C 2.598 0.0 0.0 0
M  V30 11 C 3.8424 1.554 0.0 0
M  V30 12 C 4.7159 -3.3116 0.0 0
M  V30 13 C 5.6294 -2.9048 0.0 0
M  V30 14 C 1.732 -0.5 0.0 0
M  V30 15 C 4.0503 2.5321 0.0 0
M  V30 16 C 2.8913 1.2449 0.0 0
M  V30 17 C 0.866 0.0 0.0 0
M  V30 18 C 3.3071 3.2012 0.0 0
M  V30 19 C 2.1482 1.9141 0.0 0
M  V30 20 C 0.0 -0.5 0.0 0
M  V30 21 C 2.3561 2.8922 0.0 0
M  V30 22 C 1.6129 3.5614 0.0 0
M  V30 23 C 1.8208 4.5395 0.0 0
M  V30 24 C 0.6619 3.2523 0.0 0
M  V30 25 C 2.7719 4.8485 0.0 0
M  V30 26 C 1.0777 5.2086 0.0 0
M  V30 27 C -0.0812 3.9215 0.0 0
M  V30 28 N 3.5809 4.2607 0.0 0
M  V30 29 N 3.0809 5.7996 0.0 0
M  V30 30 C 0.1266 4.8996 0.0 0
M  V30 31 N 4.3899 4.8485 0.0 0
M  V30 32 N 4.0809 5.7996 0.0 0
M  V30 END ATOM
M  V30 BEGIN BOND
M  V30 1 2 1 2
M  V30 2 1 2 3
M  V30 3 1 2 4
M  V30 4 1 3 5
M  V30 5 1 3 6
M  V30 6 1 4 7
M  V30 7 1 4 8
M  V30 8 1 4 9
M  V30 9 1 5 10
M  V30 10 1 6 11
M  V30 11 1 8 12
M  V30 12 1 9 13
M  V30 13 1 10 14
M  V30 14 2 11 15
M  V30 15 1 11 16
M  V30 16 1 14 17
M  V30 17 1 15 18
M  V30 18 2 16 19
M  V30 19 1 17 20
M  V30 20 2 18 21
M  V30 21 1 21 22
M  V30 22 2 22 23
M  V30 23 1 22 24
M  V30 24 1 23 25
M  V30 25 1 23 26
M  V30 26 2 24 27
M  V30 27 1 25 28
M  V30 28 2 25 29
M  V30 29 2 26 30
M  V30 30 2 28 31
M  V30 31 1 29 32
M  V30 32 2 5 7
M  V30 33 1 12 13
M  V30 34 1 19 21
M  V30 35 1 27 30
M  V30 36 1 31 32
M  V30 END BOND
M  V30 END CTAB
M  END
>  <Molecule Name>


>  <status>
-

>  <cas>
138402-11-6

>  <name>
IRBESARTAN

>  <ID>
796

>  <Smiles>
CCCCC(N1Cc(cc2)ccc2-c(cccc2)c2-c2n[nH]nn2)=NC2(CCCC2)C1=O

$$$$

Actelion Java MolfileCreator 2.0

  0  0  0  0  0  0              0 V3000
M  V30 BEGIN CTAB
M  V30 COUNTS 23 25 0 0 0
M  V30 BEGIN ATOM
M  V30 1 S 3.8971 0.0 0.0 0
M  V30 2 O 4.6471 1.299 0.0 0
M  V30 3 O 3.1471 1.299 0.0 0
M  V30 4 N 5.1961 -0.75 0.0 0
M  V30 5 C 2.598 -0.75 0.0 0
M  V30 6 C 6.4952 0.0 0.0 0
M  V30 7 C 1.299 0.0 0.0 0
M  V30 8 C 0.0 -0.75 0.0 0
M  V30 9 C 0.0 -2.25 0.0 0
M  V30 10 C -1.299 0.0 0.0 0
M  V30 11 C -1.299 -3.0 0.0 0
M  V30 12 C -2.598 -0.75 0.0 0
M  V30 13 C -2.598 -2.25 0.0 0
M  V30 14 C -1.6109 -4.4672 0.0 0
M  V30 15 N -3.7127 -3.2537 0.0 0
M  V30 16 C -3.1026 -4.624 0.0 0
M  V30 17 C -0.6072 -5.5819 0.0 0
M  V30 18 C -1.0707 -7.0085 0.0 0
M  V30 19 C 0.86 -5.27 0.0 0
M  V30 20 C -0.067 -8.1232 0.0 0
M  V30 21 C 1.8637 -6.3847 0.0 0
M  V30 22 N 1.4001 -7.8113 0.0 0
M  V30 23 C 2.4038 -8.9261 0.0 0
M  V30 END ATOM
M  V30 BEGIN BOND
M  V30 1 2 1 2
M  V30 2 2 1 3
M  V30 3 1 1 4
M  V30 4 1 1 5
M  V30 5 1 4 6
M  V30 6 1 5 7
M  V30 7 1 7 8
M  V30 8 2 8 9
M  V30 9 1 8 10
M  V30 10 1 9 11
M  V30 11 2 10 12
M  V30 12 2 11 13
M  V30 13 1 11 14
M  V30 14 1 13 15
M  V30 15 2 14 16
M  V30 16 1 14 17
M  V30 17 1 17 18
M  V30 18 1 17 19
M  V30 19 1 18 20
M  V30 20 1 19 21
M  V30 21 1 20 22
M  V30 22 1 22 23
M  V30 23 1 12 13
M  V30 24 1 15 16
M  V30 25 1 21 22
M  V30 END BOND
M  V30 END CTAB
M  END
>  <Molecule Name>


>  <status>
-

>  <cas>
121679-13-8

>  <name>
NARATRIPTAN

>  <ID>
797

>  <Smiles>
CNS(CCc(cc1)cc2c1[nH]cc2C1CCN(C)CC1)(=O)=O

$$$$

Actelion Java MolfileCreator 2.0

  0  0  0  0  0  0              0 V3000
M  V30 BEGIN CTAB
M  V30 COUNTS 35 35 0 0 0
M  V30 BEGIN ATOM
M  V30 1 O 9.8542 4.0606 0.0 0
M  V30 2 C 11.1532 3.3106 0.0 0
M  V30 3 O 11.5414 1.8617 0.0 0
M  V30 4 C 12.6021 3.6988 0.0 0 CFG=2
M  V30 5 C 12.9903 2.25 0.0 0 CFG=2
M  V30 6 C 13.3521 4.9979 0.0 0
M  V30 7 C 14.2894 1.5 0.0 0
M  V30 8 C 12.6021 6.2969 0.0 0
M  V30 9 C 14.2894 0.0 0.0 0 CFG=1
M  V30 10 C 13.3521 7.596 0.0 0
M  V30 11 O 15.5884 -0.75 0.0 0
M  V30 12 C 12.9903 -0.75 0.0 0
M  V30 13 C 12.6021 8.895 0.0 0
M  V30 14 C 15.5884 -2.25 0.0 0
M  V30 15 C 11.6913 0.0 0.0 0
M  V30 16 C 13.3521 10.194 0.0 0
M  V30 17 O 16.8874 -3.0 0.0 0
M  V30 18 C 14.2894 -3.0 0.0 0 CFG=1
M  V30 19 C 10.3923 -0.75 0.0 0
M  V30 20 C 12.6021 11.4931 0.0 0
M  V30 21 N 14.2894 -4.5 0.0 0
M  V30 22 C 12.9903 -2.25 0.0 0
M  V30 23 C 9.0932 0.0 0.0 0
M  V30 24 C 12.9903 -5.25 0.0 0
M  V30 25 C 11.6913 -3.0 0.0 0
M  V30 26 C 7.7942 -0.75 0.0 0
M  V30 27 O 12.9903 -6.75 0.0 0
M  V30 28 C 11.6913 -4.5 0.0 0
M  V30 29 C 10.3923 -2.25 0.0 0
M  V30 30 C 6.4951 0.0 0.0 0
M  V30 31 C 5.1961 -0.75 0.0 0
M  V30 32 C 3.8971 0.0 0.0 0
M  V30 33 C 2.598 -0.75 0.0 0
M  V30 34 C 1.299 0.0 0.0 0
M  V30 35 C 0.0 -0.75 0.0 0
M  V30 END ATOM
M  V30 BEGIN BOND
M  V30 1 2 1 2
M  V30 2 1 2 3
M  V30 3 1 4 2
M  V30 4 1 5 3
M  V30 5 1 4 6 CFG=1
M  V30 6 1 5 7 CFG=3
M  V30 7 1 6 8
M  V30 8 1 9 7
M  V30 9 1 8 10
M  V30 10 1 9 11 CFG=1
M  V30 11 1 9 12
M  V30 12 1 10 13
M  V30 13 1 11 14
M  V30 14 1 12 15
M  V30 15 1 13 16
M  V30 16 2 14 17
M  V30 17 1 18 14
M  V30 18 1 15 19
M  V30 19 1 16 20
M  V30 20 1 18 21 CFG=1
M  V30 21 1 18 22
M  V30 22 1 19 23
M  V30 23 1 21 24
M  V30 24 1 22 25
M  V30 25 1 23 26
M  V30 26 2 24 27
M  V30 27 1 25 28
M  V30 28 1 25 29
M  V30 29 1 26 30
M  V30 30 1 30 31
M  V30 31 1 31 32
M  V30 32 1 32 33
M  V30 33 1 33 34
M  V30 34 1 34 35
M  V30 35 1 4 5
M  V30 END BOND
M  V30 BEGIN COLLECTION
M  V30 MDLV30/STERAC1 ATOMS=(4 4 5 9 18)
M  V30 END COLLECTION
M  V30 END CTAB
M  END
>  <Molecule Name>


>  <status>
-

>  <cas>
96829-58-2

>  <name>
ORLISTAT

>  <ID>
798

>  <Smiles>
CCCCCCCCCCC[C@@H](C[C@@H]([C@@H]1CCCCCC)OC1=O)OC([C@H](CC(C)C)NC=O)=O

$$$$

Actelion Java MolfileCreator 2.0

  0  0  0  0  0  0              0 V3000
M  V30 BEGIN CTAB
M  V30 COUNTS 21 23 0 0 0
M  V30 BEGIN ATOM
M  V30 1 O -0.5091 -2.1717 0.0 0
M  V30 2 C 0.1599 -2.9149 0.0 0
M  V30 3 O -0.0479 -3.893 0.0 0
M  V30 4 N 1.1545 -2.8104 0.0 0
M  V30 5 C 0.818 -4.393 0.0 0
M  V30 6 C 1.5612 -3.7239 0.0 0 CFG=2
M  V30 7 C 2.5393 -3.9318 0.0 0
M  V30 8 C 3.2085 -3.1887 0.0 0
M  V30 9 C 2.8994 -2.2376 0.0 0
M  V30 10 C 4.1866 -3.3966 0.0 0
M  V30 11 C 3.5686 -1.4945 0.0 0
M  V30 12 C 4.8557 -2.6534 0.0 0
M  V30 13 C 4.5467 -1.7024 0.0 0
M  V30 14 C 3.4641 -0.5 0.0 0
M  V30 15 N 5.0467 -0.8364 0.0 0
M  V30 16 C 4.3776 -0.0932 0.0 0
M  V30 17 C 2.598 0.0 0.0 0
M  V30 18 C 1.732 -0.5 0.0 0
M  V30 19 N 0.866 0.0 0.0 0
M  V30 20 C 0.866 1.0 0.0 0
M  V30 21 C 0.0 -0.5 0.0 0
M  V30 END ATOM
M  V30 BEGIN BOND
M  V30 1 2 1 2
M  V30 2 1 2 3
M  V30 3 1 2 4
M  V30 4 1 3 5
M  V30 5 1 6 4
M  V30 6 1 6 7 CFG=1
M  V30 7 1 7 8
M  V30 8 2 8 9
M  V30 9 1 8 10
M  V30 10 1 9 11
M  V30 11 2 10 12
M  V30 12 2 11 13
M  V30 13 1 11 14
M  V30 14 1 13 15
M  V30 15 2 14 16
M  V30 16 1 14 17
M  V30 17 1 17 18
M  V30 18 1 18 19
M  V30 19 1 19 20
M  V30 20 1 19 21
M  V30 21 1 5 6
M  V30 22 1 12 13
M  V30 23 1 15 16
M  V30 END BOND
M  V30 BEGIN COLLECTION
M  V30 MDLV30/STERAC1 ATOMS=(1 6)
M  V30 END COLLECTION
M  V30 END CTAB
M  END
>  <Molecule Name>


>  <status>
-

>  <cas>
139264-17-8

>  <name>
ZOLMITRIPTAN

>  <ID>
799

>  <Smiles>
CN(C)CCc1c[nH]c2c1cc(CC(CO1)NC1=O)cc2

$$$$

Actelion Java MolfileCreator 2.0

  0  0  0  0  0  0              0 V3000
M  V30 BEGIN CTAB
M  V30 COUNTS 24 25 0 0 0
M  V30 BEGIN ATOM
M  V30 1 O 9.0932 1.5 0.0 0
M  V30 2 C 9.0932 0.0 0.0 0
M  V30 3 C 7.7942 -0.75 0.0 0
M  V30 4 C 10.3923 -0.7499 0.0 0
M  V30 5 C 7.7942 -2.25 0.0 0
M  V30 6 C 6.4951 0.0 0.0 0 CFG=2
M  V30 7 C 10.3923 -2.2499 0.0 0
M  V30 8 C 9.0932 -2.9999 0.0 0
M  V30 9 C 6.4951 1.5 0.0 0
M  V30 10 C 5.1961 -0.75 0.0 0
M  V30 11 C 9.0932 -4.4999 0.0 0
M  V30 12 C 7.7942 2.2499 0.0 0
M  V30 13 C 5.1961 2.25 0.0 0
M  V30 14 C 3.8971 0.0 0.0 0
M  V30 15 C 7.7942 3.75 0.0 0
M  V30 16 C 5.1961 3.75 0.0 0
M  V30 17 N 2.598 -0.75 0.0 0
M  V30 18 C 6.4951 4.5 0.0 0
M  V30 19 C 2.598 -2.25 0.0 0
M  V30 20 C 1.299 0.0 0.0 0
M  V30 21 C 1.299 -3.0 0.0 0
M  V30 22 C 3.8971 -3.0 0.0 0
M  V30 23 C 1.299 1.5 0.0 0
M  V30 24 C 0.0 -0.75 0.0 0
M  V30 END ATOM
M  V30 BEGIN BOND
M  V30 1 1 1 2
M  V30 2 2 2 3
M  V30 3 1 2 4
M  V30 4 1 3 5
M  V30 5 1 6 3
M  V30 6 2 4 7
M  V30 7 2 5 8
M  V30 8 1 6 9
M  V30 9 1 6 10 CFG=1
M  V30 10 1 8 11
M  V30 11 2 9 12
M  V30 12 1 9 13
M  V30 13 1 10 14
M  V30 14 1 12 15
M  V30 15 2 13 16
M  V30 16 1 14 17
M  V30 17 2 15 18
M  V30 18 1 17 19
M  V30 19 1 17 20
M  V30 20 1 19 21
M  V30 21 1 19 22
M  V30 22 1 20 23
M  V30 23 1 20 24
M  V30 24 1 7 8
M  V30 25 1 16 18
M  V30 END BOND
M  V30 BEGIN COLLECTION
M  V30 MDLV30/STERAC1 ATOMS=(1 6)
M  V30 END COLLECTION
M  V30 END CTAB
M  END
>  <Molecule Name>


>  <status>
-

>  <cas>
124937-51-5

>  <name>
TOLTERODINE

>  <ID>
800

>  <Smiles>
CC(C)N(CCC(c1ccccc1)c(cc(C)cc1)c1O)C(C)C

$$$$

Actelion Java MolfileCreator 2.0

  0  0  0  0  0  0              0 V3000
M  V30 BEGIN CTAB
M  V30 COUNTS 19 21 0 0 0
M  V30 BEGIN ATOM
M  V30 1 O 1.732 -1.5 0.0 0
M  V30 2 C 1.732 -0.5 0.0 0
M  V30 3 N 2.598 0.0 0.0 0
M  V30 4 C 0.866 0.0 0.0 0 CFG=1
M  V30 5 C 2.598 0.9999 0.0 0
M  V30 6 N 0.0 -0.5 0.0 0
M  V30 7 C 0.866 1.0 0.0 0
M  V30 8 O 3.4641 1.4999 0.0 0
M  V30 9 C 1.732 1.4999 0.0 0
M  V30 10 C -0.9135 -0.0932 0.0 0
M  V30 11 C -0.1045 -1.4945 0.0 0
M  V30 12 O -1.1214 0.8848 0.0 0
M  V30 13 C -1.5826 -0.8364 0.0 0
M  V30 14 O 0.6386 -2.1636 0.0 0
M  V30 15 C -1.0826 -1.7024 0.0 0
M  V30 16 C -2.5826 -0.8364 0.0 0
M  V30 17 C -1.5826 -2.5684 0.0 0
M  V30 18 C -3.0826 -1.7024 0.0 0
M  V30 19 C -2.5826 -2.5684 0.0 0
M  V30 END ATOM
M  V30 BEGIN BOND
M  V30 1 2 1 2
M  V30 2 1 2 3
M  V30 3 1 4 2
M  V30 4 1 3 5
M  V30 5 1 4 6 CFG=1
M  V30 6 1 4 7
M  V30 7 2 5 8
M  V30 8 1 5 9
M  V30 9 1 6 10
M  V30 10 1 6 11
M  V30 11 2 10 12
M  V30 12 1 10 13
M  V30 13 2 11 14
M  V30 14 1 11 15
M  V30 15 1 13 16
M  V30 16 1 15 17
M  V30 17 2 16 18
M  V30 18 2 17 19
M  V30 19 1 7 9
M  V30 20 2 13 15
M  V30 21 1 18 19
M  V30 END BOND
M  V30 BEGIN COLLECTION
M  V30 MDLV30/STERAC1 ATOMS=(1 4)
M  V30 END COLLECTION
M  V30 END CTAB
M  END
>  <Molecule Name>


>  <status>
-

>  <cas>
50-35-1

>  <name>
THALIDOMIDE

>  <ID>
801

>  <Smiles>
O=C(c1c2cccc1)N(C(CCC(N1)=O)C1=O)C2=O

$$$$

Actelion Java MolfileCreator 2.0

  0  0  0  0  0  0              0 V3000
M  V30 BEGIN CTAB
M  V30 COUNTS 14 15 0 0 0
M  V30 BEGIN ATOM
M  V30 1 S 1.732 -0.5 0.0 0
M  V30 2 O 1.232 -1.366 0.0 0
M  V30 3 O 2.232 0.366 0.0 0
M  V30 4 N 2.598 -0.9999 0.0 0
M  V30 5 C 0.866 0.0 0.0 0
M  V30 6 C 0.0 -0.5 0.0 0
M  V30 7 N -0.9135 -0.0932 0.0 0
M  V30 8 C -0.1045 -1.4945 0.0 0
M  V30 9 O -1.5826 -0.8364 0.0 0
M  V30 10 C -1.0826 -1.7024 0.0 0
M  V30 11 C 0.5646 -2.2376 0.0 0
M  V30 12 C -1.3916 -2.6534 0.0 0
M  V30 13 C 0.2555 -3.1887 0.0 0
M  V30 14 C -0.7225 -3.3966 0.0 0
M  V30 END ATOM
M  V30 BEGIN BOND
M  V30 1 2 1 2
M  V30 2 2 1 3
M  V30 3 1 1 4
M  V30 4 1 1 5
M  V30 5 1 5 6
M  V30 6 2 6 7
M  V30 7 1 6 8
M  V30 8 1 7 9
M  V30 9 2 8 10
M  V30 10 1 8 11
M  V30 11 1 10 12
M  V30 12 2 11 13
M  V30 13 2 12 14
M  V30 14 1 9 10
M  V30 15 1 13 14
M  V30 END BOND
M  V30 END CTAB
M  END
>  <Molecule Name>


>  <status>
-

>  <cas>
68291-97-4

>  <name>
ZONISAMIDE

>  <ID>
802

>  <Smiles>
NS(Cc1noc2c1cccc2)(=O)=O

$$$$

Actelion Java MolfileCreator 2.0

  0  0  0  0  0  0              0 V3000
M  V30 BEGIN CTAB
M  V30 COUNTS 22 22 0 0 0
M  V30 BEGIN ATOM
M  V30 1 O 4.3301 4.0 0.0 0
M  V30 2 N 3.4641 4.5 0.0 0 CHG=1
M  V30 3 O 3.4641 5.5 0.0 0 CHG=-1
M  V30 4 C 2.598 3.9999 0.0 0
M  V30 5 C 1.732 4.5 0.0 0
M  V30 6 C 2.598 2.9999 0.0 0
M  V30 7 O 1.732 5.4999 0.0 0
M  V30 8 C 0.866 3.9999 0.0 0
M  V30 9 C 1.732 2.5 0.0 0
M  V30 10 O 0.0 4.5 0.0 0
M  V30 11 C 0.866 2.9999 0.0 0
M  V30 12 C 1.732 1.4999 0.0 0
M  V30 13 C 2.598 1.0 0.0 0
M  V30 14 C 3.4641 1.5 0.0 0
M  V30 15 C 2.598 0.0 0.0 0
M  V30 16 N 4.3301 2.0 0.0 0
M  V30 17 O 3.4641 -0.5 0.0 0
M  V30 18 N 1.732 -0.5 0.0 0
M  V30 19 C 1.732 -1.5 0.0 0
M  V30 20 C 0.866 0.0 0.0 0
M  V30 21 C 2.598 -1.9999 0.0 0
M  V30 22 C 0.0 -0.5 0.0 0
M  V30 END ATOM
M  V30 BEGIN BOND
M  V30 1 2 1 2
M  V30 2 1 2 3
M  V30 3 1 2 4
M  V30 4 2 4 5
M  V30 5 1 4 6
M  V30 6 1 5 7
M  V30 7 1 5 8
M  V30 8 2 6 9
M  V30 9 1 8 10
M  V30 10 2 8 11
M  V30 11 1 9 12
M  V30 12 2 12 13
M  V30 13 1 13 14
M  V30 14 1 13 15
M  V30 15 3 14 16
M  V30 16 2 15 17
M  V30 17 1 15 18
M  V30 18 1 18 19
M  V30 19 1 18 20
M  V30 20 1 19 21
M  V30 21 1 20 22
M  V30 22 1 9 11
M  V30 END BOND
M  V30 END CTAB
M  END
>  <Molecule Name>


>  <status>
-

>  <cas>
130929-57-6

>  <name>
ENTACAPONE

>  <ID>
803

>  <Smiles>
CCN(CC)C(/C(/C#N)=C/c(cc1O)cc([N+]([O-])=O)c1O)=O

$$$$

Actelion Java MolfileCreator 2.0

  0  0  0  0  0  0              0 V3000
M  V30 BEGIN CTAB
M  V30 COUNTS 34 38 0 0 0
M  V30 BEGIN ATOM
M  V30 1 S 6.5621 -4.5388 0.0 0
M  V30 2 C 6.8711 -3.5877 0.0 0
M  V30 3 C 5.5621 -4.5388 0.0 0
M  V30 4 C 7.8222 -3.2787 0.0 0
M  V30 5 C 6.0621 -3.0 0.0 0
M  V30 6 C 5.2531 -3.5877 0.0 0
M  V30 7 C 4.893 -5.2819 0.0 0
M  V30 8 C 8.5653 -3.9478 0.0 0
M  V30 9 C 8.0301 -2.3006 0.0 0
M  V30 10 C 6.0621 -1.9999 0.0 0
M  V30 11 C 4.275 -3.3798 0.0 0
M  V30 12 C 3.9148 -5.074 0.0 0
M  V30 13 C 9.5164 -3.6388 0.0 0
M  V30 14 C 8.9812 -1.9916 0.0 0
M  V30 15 O 6.9282 -1.5 0.0 0
M  V30 16 C 5.1961 -1.4999 0.0 0
M  V30 17 C 3.6058 -4.123 0.0 0
M  V30 18 O 3.2457 -5.8172 0.0 0
M  V30 19 C 9.7243 -2.6607 0.0 0
M  V30 20 C 5.1961 -0.5 0.0 0
M  V30 21 C 4.3301 -1.9999 0.0 0
M  V30 22 O 10.6754 -2.3517 0.0 0
M  V30 23 C 4.3301 0.0 0.0 0
M  V30 24 C 3.4641 -1.5 0.0 0
M  V30 25 C 3.4641 -0.5 0.0 0
M  V30 26 O 2.598 0.0 0.0 0
M  V30 27 C 1.732 -0.5 0.0 0
M  V30 28 C 0.866 0.0 0.0 0
M  V30 29 N 0.0 -0.5 0.0 0
M  V30 30 C -0.866 0.0 0.0 0
M  V30 31 C 0.0 -1.4999 0.0 0
M  V30 32 C -1.732 -0.4999 0.0 0
M  V30 33 C -0.866 -1.9999 0.0 0
M  V30 34 C -1.732 -1.4999 0.0 0
M  V30 END ATOM
M  V30 BEGIN BOND
M  V30 1 1 1 2
M  V30 2 1 1 3
M  V30 3 1 2 4
M  V30 4 2 2 5
M  V30 5 2 3 6
M  V30 6 1 3 7
M  V30 7 2 4 8
M  V30 8 1 4 9
M  V30 9 1 5 10
M  V30 10 1 6 11
M  V30 11 2 7 12
M  V30 12 1 8 13
M  V30 13 2 9 14
M  V30 14 2 10 15
M  V30 15 1 10 16
M  V30 16 2 11 17
M  V30 17 1 12 18
M  V30 18 2 13 19
M  V30 19 2 16 20
M  V30 20 1 16 21
M  V30 21 1 19 22
M  V30 22 1 20 23
M  V30 23 2 21 24
M  V30 24 2 23 25
M  V30 25 1 25 26
M  V30 26 1 26 27
M  V30 27 1 27 28
M  V30 28 1 28 29
M  V30 29 1 29 30
M  V30 30 1 29 31
M  V30 31 1 30 32
M  V30 32 1 31 33
M  V30 33 1 32 34
M  V30 34 1 5 6
M  V30 35 1 12 17
M  V30 36 1 14 19
M  V30 37 1 24 25
M  V30 38 1 33 34
M  V30 END BOND
M  V30 END CTAB
M  END
>  <Molecule Name>


>  <status>
-

>  <cas>
84449-90-1

>  <name>
RALOXIFENE

>  <ID>
804

>  <Smiles>
Oc(cc1)ccc1-c1c(C(c(cc2)ccc2OCCN2CCCCC2)=O)c(ccc(O)c2)c2s1

$$$$

Actelion Java MolfileCreator 2.0

  0  0  0  0  0  0              0 V3000
M  V30 BEGIN CTAB
M  V30 COUNTS 23 24 0 0 0
M  V30 BEGIN ATOM
M  V30 1 S 7.7942 -0.75 0.0 0
M  V30 2 O 7.0442 -2.049 0.0 0
M  V30 3 O 8.5442 -2.049 0.0 0
M  V30 4 N 6.4952 0.0 0.0 0
M  V30 5 C 9.0932 0.0 0.0 0
M  V30 6 C 6.4952 1.5 0.0 0
M  V30 7 C 5.1961 -0.75 0.0 0
M  V30 8 S 10.5198 -0.4635 0.0 0
M  V30 9 C 9.0932 1.5 0.0 0
M  V30 10 C 7.7942 2.25 0.0 0 CFG=1
M  V30 11 C 3.8971 0.0 0.0 0
M  V30 12 C 11.4015 0.75 0.0 0
M  V30 13 C 10.5198 1.9635 0.0 0
M  V30 14 N 7.7942 3.75 0.0 0
M  V30 15 C 2.598 -0.75 0.0 0
M  V30 16 S 12.9015 0.75 0.0 0
M  V30 17 C 9.0932 4.5 0.0 0
M  V30 18 O 1.299 0.0 0.0 0
M  V30 19 O 12.9015 -0.75 0.0 0
M  V30 20 O 12.9015 2.25 0.0 0
M  V30 21 N 14.4015 0.75 0.0 0
M  V30 22 C 9.0932 6.0 0.0 0
M  V30 23 C 0.0 -0.75 0.0 0
M  V30 END ATOM
M  V30 BEGIN BOND
M  V30 1 2 1 2
M  V30 2 2 1 3
M  V30 3 1 1 4
M  V30 4 1 1 5
M  V30 5 1 4 6
M  V30 6 1 4 7
M  V30 7 1 5 8
M  V30 8 2 5 9
M  V30 9 1 10 6
M  V30 10 1 7 11
M  V30 11 1 8 12
M  V30 12 1 9 13
M  V30 13 1 10 14 CFG=3
M  V30 14 1 11 15
M  V30 15 1 12 16
M  V30 16 1 14 17
M  V30 17 1 15 18
M  V30 18 2 16 19
M  V30 19 2 16 20
M  V30 20 1 16 21
M  V30 21 1 17 22
M  V30 22 1 18 23
M  V30 23 1 9 10
M  V30 24 2 12 13
M  V30 END BOND
M  V30 BEGIN COLLECTION
M  V30 MDLV30/STERAC1 ATOMS=(1 10)
M  V30 END COLLECTION
M  V30 END CTAB
M  END
>  <Molecule Name>


>  <status>
-

>  <cas>
138890-62-7

>  <name>
BRINZOLAMIDE

>  <ID>
805

>  <Smiles>
CCNC(CN1CCCOC)c(cc(s2)S(N)(=O)=O)c2S1(=O)=O

$$$$

Actelion Java MolfileCreator 2.0

  0  0  0  0  0  0              0 V3000
M  V30 BEGIN CTAB
M  V30 COUNTS 30 32 0 0 0
M  V30 BEGIN ATOM
M  V30 1 O 5.7451 1.299 0.0 0
M  V30 2 C 6.4951 0.0 0.0 0
M  V30 3 C 5.1961 -0.75 0.0 0 CFG=1
M  V30 4 C 7.7942 0.7499 0.0 0
M  V30 5 C 7.2451 -1.299 0.0 0
M  V30 6 C 3.8971 0.0 0.0 0
M  V30 7 C 5.1961 -2.25 0.0 0
M  V30 8 C 2.598 -0.75 0.0 0
M  V30 9 C 1.299 0.0 0.0 0 CFG=2
M  V30 10 C 1.299 1.5 0.0 0 CFG=1
M  V30 11 C 0.0 -0.75 0.0 0
M  V30 12 C 2.5125 2.3816 0.0 0 CFG=1
M  V30 13 C 0.0855 2.3816 0.0 0
M  V30 14 C 2.049 3.8082 0.0 0 CFG=2
M  V30 15 C 3.9797 2.0698 0.0 0
M  V30 16 C 2.8244 0.9144 0.0 0
M  V30 17 C 0.549 3.8082 0.0 0
M  V30 18 C 3.0527 4.9229 0.0 0
M  V30 19 C 4.9834 3.1845 0.0 0
M  V30 20 C 2.5892 6.3495 0.0 0
M  V30 21 C 4.5199 4.6111 0.0 0
M  V30 22 C 3.5929 7.4642 0.0 0
M  V30 23 C 3.1293 8.8908 0.0 0
M  V30 24 C 4.133 10.0055 0.0 0
M  V30 25 C 1.6621 9.2027 0.0 0
M  V30 26 C 3.6695 11.4321 0.0 0 CFG=2
M  V30 27 C 1.1986 10.6293 0.0 0 CFG=1
M  V30 28 O 4.6732 12.5468 0.0 0
M  V30 29 C 2.2023 11.744 0.0 0
M  V30 30 O -0.2685 10.9411 0.0 0
M  V30 END ATOM
M  V30 BEGIN BOND
M  V30 1 1 1 2
M  V30 2 1 3 2
M  V30 3 1 2 4
M  V30 4 1 2 5
M  V30 5 1 3 6
M  V30 6 1 3 7 CFG=3
M  V30 7 2 6 8
M  V30 8 1 9 8
M  V30 9 1 10 9
M  V30 10 1 9 11 CFG=1
M  V30 11 1 12 10
M  V30 12 1 10 13 CFG=3
M  V30 13 1 14 12
M  V30 14 1 12 15
M  V30 15 1 12 16 CFG=3
M  V30 16 1 13 17
M  V30 17 1 14 18
M  V30 18 1 15 19
M  V30 19 2 18 20
M  V30 20 1 18 21
M  V30 21 1 20 22
M  V30 22 2 22 23
M  V30 23 1 23 24
M  V30 24 1 23 25
M  V30 25 1 26 24
M  V30 26 1 27 25
M  V30 27 1 26 28 CFG=1
M  V30 28 1 26 29
M  V30 29 1 27 30 CFG=3
M  V30 30 1 14 17 CFG=3
M  V30 31 1 19 21
M  V30 32 1 27 29
M  V30 END BOND
M  V30 BEGIN COLLECTION
M  V30 MDLV30/STERAC1 ATOMS=(7 3 9 10 12 14 26 27)
M  V30 END COLLECTION
M  V30 END CTAB
M  END
>  <Molecule Name>


>  <status>
-

>  <cas>
131918-61-1

>  <name>
PARICALCITOL

>  <ID>
806

>  <Smiles>
C[C@@H]([C@H](CC1)[C@](C)(CCC2)[C@H]1/C2=C/C=C(C[C@@H](C1)O)C[C@@H]1O)/C=C/[C@@H](C)C(C)(C)O

$$$$

Actelion Java MolfileCreator 2.0

  0  0  0  0  0  0              0 V3000
M  V30 BEGIN CTAB
M  V30 COUNTS 18 18 0 0 0
M  V30 BEGIN ATOM
M  V30 1 O 2.598 1.0 0.0 0
M  V30 2 C 2.598 0.0 0.0 0
M  V30 3 O 3.4641 -0.5 0.0 0
M  V30 4 N 1.732 -0.5 0.0 0
M  V30 5 C 4.3301 0.0 0.0 0
M  V30 6 C 0.866 0.0 0.0 0
M  V30 7 C 1.732 -1.5 0.0 0
M  V30 8 C 5.1961 -0.4999 0.0 0
M  V30 9 C 4.3301 0.9999 0.0 0
M  V30 10 C 0.0 -0.5 0.0 0
M  V30 11 C 6.0621 0.0 0.0 0
M  V30 12 C 5.1961 1.4999 0.0 0
M  V30 13 C 6.0621 1.0 0.0 0
M  V30 14 C 6.9282 -0.5 0.0 0 CFG=1
M  V30 15 N 6.9282 -1.5 0.0 0
M  V30 16 C 7.7942 0.0 0.0 0
M  V30 17 C 6.0621 -2.0 0.0 0
M  V30 18 C 7.7942 -2.0 0.0 0
M  V30 END ATOM
M  V30 BEGIN BOND
M  V30 1 2 1 2
M  V30 2 1 2 3
M  V30 3 1 2 4
M  V30 4 1 3 5
M  V30 5 1 4 6
M  V30 6 1 4 7
M  V30 7 2 5 8
M  V30 8 1 5 9
M  V30 9 1 6 10
M  V30 10 1 8 11
M  V30 11 2 9 12
M  V30 12 2 11 13
M  V30 13 1 14 11
M  V30 14 1 14 15 CFG=3
M  V30 15 1 14 16
M  V30 16 1 15 17
M  V30 17 1 15 18
M  V30 18 1 12 13
M  V30 END BOND
M  V30 BEGIN COLLECTION
M  V30 MDLV30/STERAC1 ATOMS=(1 14)
M  V30 END COLLECTION
M  V30 END CTAB
M  END
>  <Molecule Name>


>  <status>
-

>  <cas>
123441-03-2

>  <name>
RIVASTIGMINE

>  <ID>
807

>  <Smiles>
CCN(C)C(Oc1cc(C(C)N(C)C)ccc1)=O

$$$$

Actelion Java MolfileCreator 2.0

  0  0  0  0  0  0              0 V3000
M  V30 BEGIN CTAB
M  V30 COUNTS 28 32 0 0 0
M  V30 BEGIN ATOM
M  V30 1 Cl 1.732 1.4999 0.0 0
M  V30 2 C 2.598 1.0 0.0 0
M  V30 3 C 2.598 0.0 0.0 0
M  V30 4 C 3.4641 1.4999 0.0 0
M  V30 5 C 3.4641 -0.4999 0.0 0
M  V30 6 C 1.732 -0.5 0.0 0
M  V30 7 C 4.3301 1.0 0.0 0
M  V30 8 C 4.3301 0.0 0.0 0
M  V30 9 C 0.866 0.0 0.0 0
M  V30 10 N 5.2811 1.309 0.0 0
M  V30 11 C 5.2811 -0.309 0.0 0
M  V30 12 N 0.0 -0.5 0.0 0
M  V30 13 C 5.8689 0.5 0.0 0
M  V30 14 C -0.866 0.0 0.0 0
M  V30 15 C 0.0 -1.4999 0.0 0
M  V30 16 O 6.8689 0.5 0.0 0
M  V30 17 C -1.732 -0.4999 0.0 0
M  V30 18 C -0.866 -1.9999 0.0 0
M  V30 19 N -1.732 -1.4999 0.0 0
M  V30 20 C -2.598 -1.9999 0.0 0
M  V30 21 N -3.5116 -1.5932 0.0 0
M  V30 22 C -2.7026 -2.9945 0.0 0
M  V30 23 S -4.1807 -2.3364 0.0 0
M  V30 24 C -3.6807 -3.2024 0.0 0
M  V30 25 C -2.0334 -3.7376 0.0 0
M  V30 26 C -3.9897 -4.1534 0.0 0
M  V30 27 C -2.3424 -4.6887 0.0 0
M  V30 28 C -3.3206 -4.8966 0.0 0
M  V30 END ATOM
M  V30 BEGIN BOND
M  V30 1 1 1 2
M  V30 2 2 2 3
M  V30 3 1 2 4
M  V30 4 1 3 5
M  V30 5 1 3 6
M  V30 6 2 4 7
M  V30 7 2 5 8
M  V30 8 1 6 9
M  V30 9 1 7 10
M  V30 10 1 8 11
M  V30 11 1 9 12
M  V30 12 1 10 13
M  V30 13 1 12 14
M  V30 14 1 12 15
M  V30 15 2 13 16
M  V30 16 1 14 17
M  V30 17 1 15 18
M  V30 18 1 17 19
M  V30 19 1 19 20
M  V30 20 2 20 21
M  V30 21 1 20 22
M  V30 22 1 21 23
M  V30 23 2 22 24
M  V30 24 1 22 25
M  V30 25 1 24 26
M  V30 26 2 25 27
M  V30 27 2 26 28
M  V30 28 1 7 8
M  V30 29 1 11 13
M  V30 30 1 18 19
M  V30 31 1 23 24
M  V30 32 1 27 28
M  V30 END BOND
M  V30 END CTAB
M  END
>  <Molecule Name>


>  <status>
-

>  <cas>
146939-27-7

>  <name>
ZIPRASIDONE

>  <ID>
808

>  <Smiles>
O=C1Nc2cc(Cl)c(CCN(CC3)CCN3c3nsc4c3cccc4)cc2C1

$$$$

Actelion Java MolfileCreator 2.0

  0  0  0  0  0  0              0 V3000
M  V30 BEGIN CTAB
M  V30 COUNTS 41 45 0 0 0
M  V30 BEGIN ATOM
M  V30 1 Cl -4.3301 3.9999 0.0 0
M  V30 2 C -3.4641 4.4999 0.0 0
M  V30 3 C -2.598 3.9999 0.0 0
M  V30 4 C -3.4641 5.4999 0.0 0
M  V30 5 C -1.732 4.5 0.0 0
M  V30 6 C -2.598 5.9999 0.0 0
M  V30 7 N -0.866 3.9999 0.0 0
M  V30 8 C -1.732 5.4999 0.0 0
M  V30 9 C 0.0 4.4999 0.0 0
M  V30 10 C -0.866 5.9999 0.0 0
M  V30 11 C 0.0 5.5 0.0 0
M  V30 12 C 0.866 4.0 0.0 0
M  V30 13 C 0.866 3.0 0.0 0
M  V30 14 C 1.732 2.5 0.0 0
M  V30 15 C 1.732 1.5 0.0 0
M  V30 16 C 2.598 3.0 0.0 0
M  V30 17 C 2.598 1.0 0.0 0
M  V30 18 C 3.4641 2.4999 0.0 0
M  V30 19 C 3.4641 1.5 0.0 0
M  V30 20 C 2.598 0.0 0.0 0 CFG=1
M  V30 21 S 1.732 -0.5 0.0 0
M  V30 22 C 3.4641 -0.5 0.0 0
M  V30 23 C 0.866 0.0 0.0 0
M  V30 24 C 4.3301 0.0 0.0 0
M  V30 25 C 0.0 -0.5 0.0 0
M  V30 26 C 5.1961 -0.5 0.0 0
M  V30 27 C -1.0 -0.4999 0.0 0
M  V30 28 C -0.5 -1.366 0.0 0
M  V30 29 C 0.7071 -1.2071 0.0 0
M  V30 30 C 6.0621 0.0 0.0 0
M  V30 31 C 5.1961 -1.4999 0.0 0
M  V30 32 C 0.4482 -2.173 0.0 0
M  V30 33 C 6.9282 -0.4999 0.0 0
M  V30 34 C 6.0621 1.0 0.0 0
M  V30 35 C 6.0621 -1.9999 0.0 0
M  V30 36 O -0.5176 -2.4318 0.0 0
M  V30 37 O 1.1553 -2.8801 0.0 0 CHG=-1
M  V30 38 C 6.9282 -1.5 0.0 0
M  V30 39 O 7.0621 1.0 0.0 0
M  V30 40 C 6.0621 2.0 0.0 0
M  V30 41 C 5.0621 0.9999 0.0 0
M  V30 END ATOM
M  V30 BEGIN BOND
M  V30 1 1 1 2
M  V30 2 2 2 3
M  V30 3 1 2 4
M  V30 4 1 3 5
M  V30 5 2 4 6
M  V30 6 2 5 7
M  V30 7 1 5 8
M  V30 8 1 7 9
M  V30 9 2 8 10
M  V30 10 2 9 11
M  V30 11 1 9 12
M  V30 12 2 12 13
M  V30 13 1 13 14
M  V30 14 2 14 15
M  V30 15 1 14 16
M  V30 16 1 15 17
M  V30 17 2 16 18
M  V30 18 2 17 19
M  V30 19 1 20 17
M  V30 20 1 20 21 CFG=3
M  V30 21 1 20 22
M  V30 22 1 21 23
M  V30 23 1 22 24
M  V30 24 1 23 25
M  V30 25 1 24 26
M  V30 26 1 25 27
M  V30 27 1 25 28
M  V30 28 1 25 29
M  V30 29 2 26 30
M  V30 30 1 26 31
M  V30 31 1 29 32
M  V30 32 1 30 33
M  V30 33 1 30 34
M  V30 34 2 31 35
M  V30 35 2 32 36
M  V30 36 1 32 37
M  V30 37 2 33 38
M  V30 38 1 34 39
M  V30 39 1 34 40
M  V30 40 1 34 41
M  V30 41 1 6 8
M  V30 42 1 10 11
M  V30 43 1 18 19
M  V30 44 1 27 28
M  V30 45 1 35 38
M  V30 END BOND
M  V30 BEGIN COLLECTION
M  V30 MDLV30/STERAC1 ATOMS=(1 20)
M  V30 END COLLECTION
M  V30 END CTAB
M  END
>  <Molecule Name>


>  <status>
-

>  <cas>
158966-92-8

>  <name>
MONTELUKAST

>  <ID>
809

>  <Smiles>
CC(C)(c1c(CCC(c2cccc(/C=C/c3ccc(ccc(Cl)c4)c4n3)c2)SCC2(CC([O-])=O)CC2)cccc1)O

$$$$

Actelion Java MolfileCreator 2.0

  0  0  0  0  0  0              0 V3000
M  V30 BEGIN CTAB
M  V30 COUNTS 25 26 0 0 0
M  V30 BEGIN ATOM
M  V30 1 O 5.1961 -4.4999 0.0 0
M  V30 2 C 5.1961 -3.4999 0.0 0
M  V30 3 N 6.0621 -3.0 0.0 0
M  V30 4 C 6.0621 -2.0 0.0 0
M  V30 5 C 6.9282 -1.5 0.0 0
M  V30 6 C 5.1961 -1.4999 0.0 0
M  V30 7 O 7.7942 -2.0 0.0 0
M  V30 8 C 6.9282 -0.5 0.0 0
M  V30 9 C 5.1961 -0.5 0.0 0
M  V30 10 C 6.0621 0.0 0.0 0
M  V30 11 C 4.3301 0.0 0.0 0 CFG=1
M  V30 12 O 4.3301 1.0 0.0 0
M  V30 13 C 3.4641 -0.5 0.0 0
M  V30 14 N 2.598 0.0 0.0 0
M  V30 15 C 1.732 -0.5 0.0 0 CFG=1
M  V30 16 C 0.866 0.0 0.0 0
M  V30 17 C 1.732 -1.5 0.0 0
M  V30 18 C 0.0 -0.5 0.0 0
M  V30 19 C -0.866 0.0 0.0 0
M  V30 20 C 0.0 -1.4999 0.0 0
M  V30 21 C -1.732 -0.4999 0.0 0
M  V30 22 C -0.866 -1.9999 0.0 0
M  V30 23 C -1.732 -1.4999 0.0 0
M  V30 24 O -2.598 -1.9999 0.0 0
M  V30 25 C -2.598 -2.9999 0.0 0
M  V30 END ATOM
M  V30 BEGIN BOND
M  V30 1 2 1 2
M  V30 2 1 2 3
M  V30 3 1 3 4
M  V30 4 2 4 5
M  V30 5 1 4 6
M  V30 6 1 5 7
M  V30 7 1 5 8
M  V30 8 2 6 9
M  V30 9 2 8 10
M  V30 10 1 11 9
M  V30 11 1 11 12 CFG=3
M  V30 12 1 11 13
M  V30 13 1 13 14
M  V30 14 1 15 14 CFG=3
M  V30 15 1 15 16
M  V30 16 1 15 17
M  V30 17 1 16 18
M  V30 18 2 18 19
M  V30 19 1 18 20
M  V30 20 1 19 21
M  V30 21 2 20 22
M  V30 22 2 21 23
M  V30 23 1 23 24
M  V30 24 1 24 25
M  V30 25 1 9 10
M  V30 26 1 22 23
M  V30 END BOND
M  V30 BEGIN COLLECTION
M  V30 MDLV30/STERAC1 ATOMS=(2 11 15)
M  V30 END COLLECTION
M  V30 END CTAB
M  END
>  <Molecule Name>


>  <status>
-

>  <cas>
73573-87-2

>  <name>
FORMOTEROL

>  <ID>
810

>  <Smiles>
C[C@H](Cc(cc1)ccc1OC)NC[C@@H](c(cc1)cc(NC=O)c1O)O

$$$$

Actelion Java MolfileCreator 2.0

  0  0  0  0  0  0              0 V3000
M  V30 BEGIN CTAB
M  V30 COUNTS 35 37 0 0 0
M  V30 BEGIN ATOM
M  V30 1 S 9.0932 1.5 0.0 0
M  V30 2 O 10.5932 1.4999 0.0 0
M  V30 3 O 9.8432 2.799 0.0 0
M  V30 4 N 9.0932 0.0 0.0 0
M  V30 5 C 7.7942 2.25 0.0 0
M  V30 6 C 7.7942 -0.75 0.0 0 CFG=1
M  V30 7 C 7.7942 3.75 0.0 0
M  V30 8 C 6.4951 1.5 0.0 0
M  V30 9 C 7.7942 -2.25 0.0 0
M  V30 10 C 6.4951 0.0 0.0 0
M  V30 11 N 9.0932 4.5 0.0 0
M  V30 12 C 6.4951 4.5 0.0 0
M  V30 13 C 5.1961 2.25 0.0 0
M  V30 14 O 9.0932 -3.0 0.0 0
M  V30 15 N 6.4951 -3.0 0.0 0
M  V30 16 C 5.1961 -0.75 0.0 0
M  V30 17 C 9.0932 6.0 0.0 0
M  V30 18 C 5.1961 3.75 0.0 0
M  V30 19 C 6.4951 6.0 0.0 0
M  V30 20 C 6.4951 -4.5 0.0 0 CFG=2
M  V30 21 C 5.1961 -2.25 0.0 0
M  V30 22 C 3.8971 0.0 0.0 0
M  V30 23 C 7.7942 6.75 0.0 0 CFG=1
M  V30 24 C 7.7942 -5.25 0.0 0
M  V30 25 C 5.1961 -5.25 0.0 0
M  V30 26 C 3.8971 -3.0 0.0 0
M  V30 27 N 2.598 -0.75 0.0 0
M  V30 28 C 7.7942 8.25 0.0 0
M  V30 29 O 9.0932 -4.5 0.0 0
M  V30 30 O 7.7942 -6.75 0.0 0 CHG=-1
M  V30 31 C 3.8971 -4.5 0.0 0 CFG=2
M  V30 32 C 1.299 0.0 0.0 0
M  V30 33 C 2.598 -5.25 0.0 0
M  V30 34 N 1.299 1.5 0.0 0
M  V30 35 N 0.0 -0.75 0.0 0
M  V30 END ATOM
M  V30 BEGIN BOND
M  V30 1 2 1 2
M  V30 2 2 1 3
M  V30 3 1 1 4
M  V30 4 1 1 5
M  V30 5 1 6 4 CFG=1
M  V30 6 2 5 7
M  V30 7 1 5 8
M  V30 8 1 6 9
M  V30 9 1 6 10
M  V30 10 1 7 11
M  V30 11 1 7 12
M  V30 12 2 8 13
M  V30 13 2 9 14
M  V30 14 1 9 15
M  V30 15 1 10 16
M  V30 16 1 11 17
M  V30 17 2 12 18
M  V30 18 1 12 19
M  V30 19 1 20 15
M  V30 20 1 15 21
M  V30 21 1 16 22
M  V30 22 1 23 17
M  V30 23 1 20 24 CFG=3
M  V30 24 1 20 25
M  V30 25 1 21 26
M  V30 26 1 22 27
M  V30 27 1 23 28 CFG=1
M  V30 28 2 24 29
M  V30 29 1 24 30
M  V30 30 1 31 25
M  V30 31 2 27 32
M  V30 32 1 31 33 CFG=1
M  V30 33 1 32 34
M  V30 34 1 32 35
M  V30 35 1 13 18
M  V30 36 1 19 23
M  V30 37 1 26 31
M  V30 END BOND
M  V30 BEGIN COLLECTION
M  V30 MDLV30/STERAC1 ATOMS=(4 6 20 23 31)
M  V30 END COLLECTION
M  V30 END CTAB
M  END
>  <Molecule Name>


>  <status>
-

>  <cas>
74863-84-6

>  <name>
ARGATROBAN

>  <ID>
811

>  <Smiles>
C[C@@H](CC1)C[C@@H](C([O-])=O)N1C([C@@H](CCCN=C(N)N)NS(c1c2NC[C@H](C)Cc2ccc1)(=O)=O)=O

$$$$

Actelion Java MolfileCreator 2.0

  0  0  0  0  0  0              0 V3000
M  V30 BEGIN CTAB
M  V30 COUNTS 17 17 0 0 0
M  V30 BEGIN ATOM
M  V30 1 P 2.598 0.0 0.0 0
M  V30 2 O 3.098 -0.866 0.0 0
M  V30 3 O 3.4641 0.5 0.0 0 CHG=-1
M  V30 4 O 2.098 0.866 0.0 0 CHG=-1
M  V30 5 C 1.732 -0.5 0.0 0
M  V30 6 P 1.732 -1.5 0.0 0
M  V30 7 O 2.598 -0.9999 0.0 0
M  V30 8 C 0.866 0.0 0.0 0
M  V30 9 O 0.732 -1.4999 0.0 0
M  V30 10 O 1.732 -2.5 0.0 0 CHG=-1
M  V30 11 O 2.732 -1.5 0.0 0 CHG=-1
M  V30 12 C 0.866 0.9999 0.0 0
M  V30 13 C 0.0 1.4999 0.0 0
M  V30 14 C 1.732 1.5 0.0 0
M  V30 15 N 0.0 2.4999 0.0 0
M  V30 16 C 1.732 2.5 0.0 0
M  V30 17 C 0.866 3.0 0.0 0
M  V30 END ATOM
M  V30 BEGIN BOND
M  V30 1 2 1 2
M  V30 2 1 1 3
M  V30 3 1 1 4
M  V30 4 1 1 5
M  V30 5 1 5 6
M  V30 6 1 5 7
M  V30 7 1 5 8
M  V30 8 2 6 9
M  V30 9 1 6 10
M  V30 10 1 6 11
M  V30 11 1 8 12
M  V30 12 2 12 13
M  V30 13 1 12 14
M  V30 14 1 13 15
M  V30 15 2 14 16
M  V30 16 2 15 17
M  V30 17 1 16 17
M  V30 END BOND
M  V30 END CTAB
M  END
>  <Molecule Name>


>  <status>
-

>  <cas>
105462-24-6

>  <name>
RISEDRONATE

>  <ID>
812

>  <Smiles>
[O-]P(C(Cc1cnccc1)(O)P([O-])([O-])=O)([O-])=O

$$$$

Actelion Java MolfileCreator 2.0

  0  0  0  0  0  0              0 V3000
M  V30 BEGIN CTAB
M  V30 COUNTS 17 17 0 0 0
M  V30 BEGIN ATOM
M  V30 1 O 6.0621 -1.9999 0.0 0
M  V30 2 C 5.1961 -1.4999 0.0 0
M  V30 3 C 5.1961 -0.5 0.0 0
M  V30 4 C 4.3301 -1.9999 0.0 0
M  V30 5 C 4.3301 0.0 0.0 0
M  V30 6 C 6.0621 0.0 0.0 0
M  V30 7 C 3.4641 -1.5 0.0 0
M  V30 8 C 3.4641 -0.5 0.0 0
M  V30 9 O 6.0621 0.9999 0.0 0
M  V30 10 C 2.598 0.0 0.0 0 CFG=1
M  V30 11 O 2.598 1.0 0.0 0
M  V30 12 C 1.732 -0.5 0.0 0
M  V30 13 N 0.866 0.0 0.0 0
M  V30 14 C 0.0 -0.5 0.0 0
M  V30 15 C 0.4999 -1.366 0.0 0
M  V30 16 C -0.866 -0.9999 0.0 0
M  V30 17 C -0.4999 0.366 0.0 0
M  V30 END ATOM
M  V30 BEGIN BOND
M  V30 1 1 1 2
M  V30 2 2 2 3
M  V30 3 1 2 4
M  V30 4 1 3 5
M  V30 5 1 3 6
M  V30 6 2 4 7
M  V30 7 2 5 8
M  V30 8 1 6 9
M  V30 9 1 10 8
M  V30 10 1 10 11 CFG=3
M  V30 11 1 10 12
M  V30 12 1 12 13
M  V30 13 1 13 14
M  V30 14 1 14 15
M  V30 15 1 14 16
M  V30 16 1 14 17
M  V30 17 1 7 8
M  V30 END BOND
M  V30 BEGIN COLLECTION
M  V30 MDLV30/STERAC1 ATOMS=(1 10)
M  V30 END COLLECTION
M  V30 END CTAB
M  END
>  <Molecule Name>


>  <status>
-

>  <cas>
34391-04-3

>  <name>
LEVALBUTEROL

>  <ID>
813

>  <Smiles>
CC(C)(C)NCC(c(cc1)cc(CO)c1O)O

$$$$

Actelion Java MolfileCreator 2.0

  0  0  0  0  0  0              0 V3000
M  V30 BEGIN CTAB
M  V30 COUNTS 39 44 0 0 0
M  V30 BEGIN ATOM
M  V30 1 O 2.1138 -6.3267 0.0 0
M  V30 2 C 1.9059 -5.3485 0.0 0
M  V30 3 O 2.649 -4.6794 0.0 0 CHG=-1
M  V30 4 C 0.9548 -5.0395 0.0 0
M  V30 5 C 0.7469 -4.0614 0.0 0
M  V30 6 C 0.2117 -5.7086 0.0 0
M  V30 7 C 1.49 -3.3922 0.0 0
M  V30 8 C -0.2041 -3.7523 0.0 0
M  V30 9 C -0.7393 -5.3996 0.0 0
M  V30 10 C 2.4411 -3.7012 0.0 0
M  V30 11 C 1.2821 -2.4141 0.0 0
M  V30 12 C -0.9472 -4.4215 0.0 0
M  V30 13 C 3.1843 -3.0321 0.0 0
M  V30 14 C 2.0253 -1.7449 0.0 0
M  V30 15 C 2.9763 -2.054 0.0 0
M  V30 16 C 3.7195 -1.3848 0.0 0
M  V30 17 N 3.5116 -0.4067 0.0 0
M  V30 18 C 4.1807 0.3364 0.0 0
M  V30 19 C 2.598 0.0 0.0 0
M  V30 20 C 3.6807 1.2024 0.0 0
M  V30 21 C 5.1807 0.3364 0.0 0
M  V30 22 N 2.7026 0.9945 0.0 0
M  V30 23 C 1.732 -0.5 0.0 0
M  V30 24 C 4.1807 2.0684 0.0 0
M  V30 25 C 5.6807 1.2024 0.0 0
M  V30 26 C 0.866 0.0 0.0 0
M  V30 27 C 5.1807 2.0684 0.0 0
M  V30 28 C 3.6807 2.9344 0.0 0
M  V30 29 C 6.6807 1.2024 0.0 0
M  V30 30 C 0.0 -0.5 0.0 0
M  V30 31 N 7.2685 0.3934 0.0 0
M  V30 32 N 7.2685 2.0114 0.0 0
M  V30 33 C 8.2195 0.7024 0.0 0
M  V30 34 C 8.2195 1.7024 0.0 0
M  V30 35 C 6.9595 2.9625 0.0 0
M  V30 36 C 9.0856 0.2024 0.0 0
M  V30 37 C 9.0856 2.2024 0.0 0
M  V30 38 C 9.9516 0.7024 0.0 0
M  V30 39 C 9.9516 1.7024 0.0 0
M  V30 END ATOM
M  V30 BEGIN BOND
M  V30 1 2 1 2
M  V30 2 1 2 3
M  V30 3 1 2 4
M  V30 4 2 4 5
M  V30 5 1 4 6
M  V30 6 1 5 7
M  V30 7 1 5 8
M  V30 8 2 6 9
M  V30 9 2 7 10
M  V30 10 1 7 11
M  V30 11 2 8 12
M  V30 12 1 10 13
M  V30 13 2 11 14
M  V30 14 2 13 15
M  V30 15 1 15 16
M  V30 16 1 16 17
M  V30 17 1 17 18
M  V30 18 1 17 19
M  V30 19 2 18 20
M  V30 20 1 18 21
M  V30 21 2 19 22
M  V30 22 1 19 23
M  V30 23 1 20 24
M  V30 24 2 21 25
M  V30 25 1 23 26
M  V30 26 2 24 27
M  V30 27 1 24 28
M  V30 28 1 25 29
M  V30 29 1 26 30
M  V30 30 2 29 31
M  V30 31 1 29 32
M  V30 32 1 31 33
M  V30 33 1 32 34
M  V30 34 1 32 35
M  V30 35 1 33 36
M  V30 36 1 34 37
M  V30 37 2 36 38
M  V30 38 2 37 39
M  V30 39 1 9 12
M  V30 40 1 14 15
M  V30 41 1 20 22
M  V30 42 1 25 27
M  V30 43 2 33 34
M  V30 44 1 38 39
M  V30 END BOND
M  V30 END CTAB
M  END
>  <Molecule Name>


>  <status>
-

>  <cas>
144701-48-4

>  <name>
TELMISARTAN

>  <ID>
814

>  <Smiles>
CCCc1nc(c(C)cc(-c2nc(cccc3)c3n2C)c2)c2n1Cc(cc1)ccc1-c(cccc1)c1C([O-])=O

$$$$

Actelion Java MolfileCreator 2.0

  0  0  0  0  0  0              0 V3000
M  V30 BEGIN CTAB
M  V30 COUNTS 23 25 0 0 0
M  V30 BEGIN ATOM
M  V30 1 O 3.4641 -0.5 0.0 0
M  V30 2 C 2.598 0.0 0.0 0
M  V30 3 N 1.732 -0.5 0.0 0
M  V30 4 C 2.598 1.0 0.0 0
M  V30 5 C 1.732 -1.5 0.0 0
M  V30 6 C 0.866 0.0 0.0 0
M  V30 7 C 0.866 -1.9999 0.0 0
M  V30 8 C 2.598 -2.0 0.0 0
M  V30 9 C 0.0 -0.5 0.0 0
M  V30 10 C 0.866 -2.9999 0.0 0
M  V30 11 C 2.598 -3.0 0.0 0
M  V30 12 C 0.0 -3.4999 0.0 0
M  V30 13 C 1.732 -3.5 0.0 0
M  V30 14 N -0.866 -2.9999 0.0 0
M  V30 15 C 0.0 -4.4999 0.0 0
M  V30 16 N -1.0739 -2.0218 0.0 0
M  V30 17 C -1.732 -3.4999 0.0 0
M  V30 18 C -0.866 -4.9999 0.0 0
M  V30 19 C -2.0684 -1.9173 0.0 0
M  V30 20 N -1.732 -4.4999 0.0 0
M  V30 21 C -2.4751 -2.8308 0.0 0
M  V30 22 C -3.4533 -3.0387 0.0 0
M  V30 23 N -4.4314 -3.2466 0.0 0
M  V30 END ATOM
M  V30 BEGIN BOND
M  V30 1 2 1 2
M  V30 2 1 2 3
M  V30 3 1 2 4
M  V30 4 1 3 5
M  V30 5 1 3 6
M  V30 6 2 5 7
M  V30 7 1 5 8
M  V30 8 1 6 9
M  V30 9 1 7 10
M  V30 10 2 8 11
M  V30 11 1 10 12
M  V30 12 2 10 13
M  V30 13 1 12 14
M  V30 14 2 12 15
M  V30 15 1 14 16
M  V30 16 1 14 17
M  V30 17 1 15 18
M  V30 18 2 16 19
M  V30 19 1 17 20
M  V30 20 2 17 21
M  V30 21 1 21 22
M  V30 22 3 22 23
M  V30 23 1 11 13
M  V30 24 2 18 20
M  V30 25 1 19 21
M  V30 END BOND
M  V30 END CTAB
M  END
>  <Molecule Name>


>  <status>
-

>  <cas>
151319-34-5

>  <name>
ZALEPLON

>  <ID>
815

>  <Smiles>
CCN(C(C)=O)c1cc(-c(n2nc3)ccnc2c3C#N)ccc1

$$$$

Actelion Java MolfileCreator 2.0

  0  0  0  0  0  0              0 V3000
M  V30 BEGIN CTAB
M  V30 COUNTS 27 30 0 0 0
M  V30 BEGIN ATOM
M  V30 1 O 8.6602 -3.5 0.0 0
M  V30 2 C 7.7942 -2.9999 0.0 0
M  V30 3 N 7.7942 -1.9999 0.0 0
M  V30 4 C 6.9282 -3.4999 0.0 0
M  V30 5 C 6.9282 -1.4999 0.0 0
M  V30 6 C 6.0621 -2.9999 0.0 0
M  V30 7 C 6.0621 -1.9999 0.0 0
M  V30 8 C 6.9282 -0.5 0.0 0
M  V30 9 C 5.1961 -1.4999 0.0 0
M  V30 10 C 6.0621 0.0 0.0 0
M  V30 11 C 5.1961 -0.5 0.0 0
M  V30 12 O 4.3301 0.0 0.0 0
M  V30 13 C 3.4641 -0.5 0.0 0
M  V30 14 C 2.598 0.0 0.0 0
M  V30 15 C 1.732 -0.5 0.0 0
M  V30 16 C 0.866 0.0 0.0 0
M  V30 17 C 0.0 -0.5 0.0 0
M  V30 18 N -0.9135 -0.0932 0.0 0
M  V30 19 N -0.1045 -1.4945 0.0 0
M  V30 20 N -1.5826 -0.8364 0.0 0
M  V30 21 N -1.0826 -1.7024 0.0 0
M  V30 22 C 0.6386 -2.1636 0.0 0
M  V30 23 C 0.4307 -3.1418 0.0 0
M  V30 24 C 1.5896 -1.8546 0.0 0
M  V30 25 C 1.1738 -3.8109 0.0 0
M  V30 26 C 2.3328 -2.5237 0.0 0
M  V30 27 C 2.1249 -3.5019 0.0 0
M  V30 END ATOM
M  V30 BEGIN BOND
M  V30 1 2 1 2
M  V30 2 1 2 3
M  V30 3 1 2 4
M  V30 4 1 3 5
M  V30 5 1 4 6
M  V30 6 2 5 7
M  V30 7 1 5 8
M  V30 8 1 7 9
M  V30 9 2 8 10
M  V30 10 2 9 11
M  V30 11 1 11 12
M  V30 12 1 12 13
M  V30 13 1 13 14
M  V30 14 1 14 15
M  V30 15 1 15 16
M  V30 16 1 16 17
M  V30 17 2 17 18
M  V30 18 1 17 19
M  V30 19 1 18 20
M  V30 20 1 19 21
M  V30 21 1 19 22
M  V30 22 1 22 23
M  V30 23 1 22 24
M  V30 24 1 23 25
M  V30 25 1 24 26
M  V30 26 1 25 27
M  V30 27 1 6 7
M  V30 28 1 10 11
M  V30 29 2 20 21
M  V30 30 1 26 27
M  V30 END BOND
M  V30 END CTAB
M  END
>  <Molecule Name>


>  <status>
-

>  <cas>
73963-72-1

>  <name>
CILOSTAZOL

>  <ID>
816

>  <Smiles>
O=C(CC1)Nc(cc2)c1cc2OCCCCc1nnnn1C1CCCCC1

$$$$

Actelion Java MolfileCreator 2.0

  0  0  0  0  0  0              0 V3000
M  V30 BEGIN CTAB
M  V30 COUNTS 21 22 0 0 0
M  V30 BEGIN ATOM
M  V30 1 O 4.3301 0.9999 0.0 0
M  V30 2 C 4.3301 0.0 0.0 0
M  V30 3 O 3.4641 -0.5 0.0 0
M  V30 4 C 5.1961 -0.5 0.0 0 CFG=1
M  V30 5 C 2.598 0.0 0.0 0
M  V30 6 C 6.0621 0.0 0.0 0
M  V30 7 C 5.1961 -1.4999 0.0 0
M  V30 8 C 1.732 -0.5 0.0 0
M  V30 9 C 6.9282 -0.5 0.0 0
M  V30 10 C 6.0621 0.9999 0.0 0
M  V30 11 O 6.0871 -1.046 0.0 0
M  V30 12 C 4.3871 -2.0877 0.0 0
M  V30 13 C 6.0051 -2.0877 0.0 0
M  V30 14 N 0.866 0.0 0.0 0
M  V30 15 C 7.7942 0.0 0.0 0
M  V30 16 C 6.9282 1.4999 0.0 0
M  V30 17 C 4.6961 -3.0388 0.0 0
M  V30 18 C 5.6961 -3.0388 0.0 0
M  V30 19 C 0.866 1.0 0.0 0
M  V30 20 C 0.0 -0.5 0.0 0
M  V30 21 C 7.7942 0.9999 0.0 0
M  V30 END ATOM
M  V30 BEGIN BOND
M  V30 1 2 1 2
M  V30 2 1 2 3
M  V30 3 1 4 2 CFG=1
M  V30 4 1 3 5
M  V30 5 1 4 6
M  V30 6 1 4 7
M  V30 7 1 5 8
M  V30 8 2 6 9
M  V30 9 1 6 10
M  V30 10 1 7 11
M  V30 11 1 7 12
M  V30 12 1 7 13
M  V30 13 1 8 14
M  V30 14 1 9 15
M  V30 15 2 10 16
M  V30 16 1 12 17
M  V30 17 1 13 18
M  V30 18 1 14 19
M  V30 19 1 14 20
M  V30 20 2 15 21
M  V30 21 1 16 21
M  V30 22 1 17 18
M  V30 END BOND
M  V30 BEGIN COLLECTION
M  V30 MDLV30/STERAC1 ATOMS=(1 4)
M  V30 END COLLECTION
M  V30 END CTAB
M  END
>  <Molecule Name>


>  <status>
-

>  <cas>
204990-63-6

>  <name>
CYCLOPENTOLATE

>  <ID>
817

>  <Smiles>
CN(C)CCOC(C(C1(CCCC1)O)c1ccccc1)=O

$$$$

Actelion Java MolfileCreator 2.0

  0  0  0  0  0  0              0 V3000
M  V30 BEGIN CTAB
M  V30 COUNTS 35 37 0 0 0
M  V30 BEGIN ATOM
M  V30 1 S 9.0932 1.5 0.0 0
M  V30 2 O 10.5932 1.4999 0.0 0
M  V30 3 O 9.8432 2.799 0.0 0
M  V30 4 N 9.0932 0.0 0.0 0
M  V30 5 C 7.7942 2.25 0.0 0
M  V30 6 C 7.7942 -0.75 0.0 0 CFG=1
M  V30 7 C 7.7942 3.75 0.0 0
M  V30 8 C 6.4951 1.5 0.0 0
M  V30 9 C 7.7942 -2.25 0.0 0
M  V30 10 C 6.4951 0.0 0.0 0
M  V30 11 N 9.0932 4.5 0.0 0
M  V30 12 C 6.4951 4.5 0.0 0
M  V30 13 C 5.1961 2.25 0.0 0
M  V30 14 O 9.0932 -3.0 0.0 0
M  V30 15 N 6.4951 -3.0 0.0 0
M  V30 16 C 5.1961 -0.75 0.0 0
M  V30 17 C 9.0932 6.0 0.0 0
M  V30 18 C 5.1961 3.75 0.0 0
M  V30 19 C 6.4951 6.0 0.0 0
M  V30 20 C 6.4951 -4.5 0.0 0 CFG=2
M  V30 21 C 5.1961 -2.25 0.0 0
M  V30 22 C 3.8971 0.0 0.0 0
M  V30 23 C 7.7942 6.75 0.0 0 CFG=2
M  V30 24 C 7.7942 -5.25 0.0 0
M  V30 25 C 5.1961 -5.25 0.0 0
M  V30 26 C 3.8971 -3.0 0.0 0
M  V30 27 N 2.598 -0.75 0.0 0
M  V30 28 C 7.7942 8.25 0.0 0
M  V30 29 O 9.0932 -4.5 0.0 0
M  V30 30 O 7.7942 -6.75 0.0 0 CHG=-1
M  V30 31 C 3.8971 -4.5 0.0 0 CFG=2
M  V30 32 C 1.299 0.0 0.0 0
M  V30 33 C 2.598 -5.25 0.0 0
M  V30 34 N 1.299 1.5 0.0 0
M  V30 35 N 0.0 -0.75 0.0 0
M  V30 END ATOM
M  V30 BEGIN BOND
M  V30 1 2 1 2
M  V30 2 2 1 3
M  V30 3 1 1 4
M  V30 4 1 1 5
M  V30 5 1 6 4 CFG=1
M  V30 6 2 5 7
M  V30 7 1 5 8
M  V30 8 1 6 9
M  V30 9 1 6 10
M  V30 10 1 7 11
M  V30 11 1 7 12
M  V30 12 2 8 13
M  V30 13 2 9 14
M  V30 14 1 9 15
M  V30 15 1 10 16
M  V30 16 1 11 17
M  V30 17 2 12 18
M  V30 18 1 12 19
M  V30 19 1 20 15
M  V30 20 1 15 21
M  V30 21 1 16 22
M  V30 22 1 23 17
M  V30 23 1 20 24 CFG=3
M  V30 24 1 20 25
M  V30 25 1 21 26
M  V30 26 1 22 27
M  V30 27 1 23 28 CFG=3
M  V30 28 2 24 29
M  V30 29 1 24 30
M  V30 30 1 31 25
M  V30 31 2 27 32
M  V30 32 1 31 33 CFG=1
M  V30 33 1 32 34
M  V30 34 1 32 35
M  V30 35 1 13 18
M  V30 36 1 19 23
M  V30 37 1 26 31
M  V30 END BOND
M  V30 BEGIN COLLECTION
M  V30 MDLV30/STERAC1 ATOMS=(4 6 20 23 31)
M  V30 END COLLECTION
M  V30 END CTAB
M  END
>  <Molecule Name>


>  <status>
-

>  <cas>
74863-84-6

>  <name>
ARGATROBAN

>  <ID>
818

>  <Smiles>
C[C@@H](CC1)C[C@@H](C([O-])=O)N1C([C@@H](CCCN=C(N)N)NS(c1c2NC[C@@H](C)Cc2ccc1)(=O)=O)=O

$$$$

Actelion Java MolfileCreator 2.0

  0  0  0  0  0  0              0 V3000
M  V30 BEGIN CTAB
M  V30 COUNTS 22 22 0 0 0
M  V30 BEGIN ATOM
M  V30 1 O 9.0932 -7.5 0.0 0
M  V30 2 C 7.7942 -6.75 0.0 0
M  V30 3 O 6.4952 -7.5 0.0 0 CHG=-1
M  V30 4 C 7.7942 -5.25 0.0 0
M  V30 5 C 6.4952 -4.5 0.0 0
M  V30 6 C 6.4952 -3.0 0.0 0
M  V30 7 C 5.1961 -5.25 0.0 0
M  V30 8 C 5.1961 -2.25 0.0 0
M  V30 9 C 5.1961 -0.75 0.0 0
M  V30 10 C 3.8971 0.0 0.0 0
M  V30 11 C 2.598 -0.75 0.0 0
M  V30 12 C 3.8971 1.5 0.0 0
M  V30 13 C 1.299 0.0 0.0 0
M  V30 14 C 0.0 -0.75 0.0 0
M  V30 15 C -1.299 0.0 0.0 0
M  V30 16 C 0.0 -2.25 0.0 0
M  V30 17 C -2.598 -0.75 0.0 0
M  V30 18 C -1.299 1.5 0.0 0
M  V30 19 C -1.299 -3.0 0.0 0
M  V30 20 C 0.7499 -3.549 0.0 0
M  V30 21 C 1.4999 -2.2499 0.0 0
M  V30 22 C -2.598 -2.25 0.0 0
M  V30 END ATOM
M  V30 BEGIN BOND
M  V30 1 2 1 2
M  V30 2 1 2 3
M  V30 3 1 2 4
M  V30 4 2 4 5
M  V30 5 1 5 6
M  V30 6 1 5 7
M  V30 7 2 6 8
M  V30 8 1 8 9
M  V30 9 2 9 10
M  V30 10 1 10 11
M  V30 11 1 10 12
M  V30 12 2 11 13
M  V30 13 1 13 14
M  V30 14 2 14 15
M  V30 15 1 14 16
M  V30 16 1 15 17
M  V30 17 1 15 18
M  V30 18 1 16 19
M  V30 19 1 16 20
M  V30 20 1 16 21
M  V30 21 1 17 22
M  V30 22 1 19 22
M  V30 END BOND
M  V30 END CTAB
M  END
>  <Molecule Name>


>  <status>
-

>  <cas>
5300-03-8

>  <name>
ALITRETINOIN

>  <ID>
819

>  <Smiles>
CC1(C)C(/C=C/C(/C)=C\C=C\C(\C)=C\C([O-])=O)=C(C)CCC1

$$$$

Actelion Java MolfileCreator 2.0

  0  0  0  0  0  0              0 V3000
M  V30 BEGIN CTAB
M  V30 COUNTS 51 55 0 0 0
M  V30 BEGIN ATOM
M  V30 1 F 9.6602 -1.5 0.0 0
M  V30 2 C 8.6602 -1.5 0.0 0
M  V30 3 F 8.6602 -2.5 0.0 0
M  V30 4 F 7.6602 -1.5 0.0 0
M  V30 5 C 8.6602 -0.5 0.0 0
M  V30 6 O 7.7942 0.0 0.0 0
M  V30 7 N 9.5262 0.0 0.0 0
M  V30 8 C 9.5262 0.9999 0.0 0 CFG=1
M  V30 9 C 10.3923 1.4999 0.0 0 CFG=1
M  V30 10 C 8.6602 1.4999 0.0 0
M  V30 11 O 11.2583 0.9999 0.0 0
M  V30 12 C 10.3923 2.4999 0.0 0 CFG=2
M  V30 13 C 8.6602 2.4999 0.0 0 CFG=2
M  V30 14 O 9.5262 2.9999 0.0 0
M  V30 15 C 11.2583 2.9999 0.0 0
M  V30 16 O 7.7942 2.9999 0.0 0
M  V30 17 C 6.9282 2.4999 0.0 0 CFG=1
M  V30 18 C 6.0621 2.9999 0.0 0
M  V30 19 C 6.9282 1.4999 0.0 0
M  V30 20 C 6.0621 3.9999 0.0 0
M  V30 21 C 5.1961 2.5 0.0 0
M  V30 22 C 6.0621 0.9999 0.0 0 CFG=1
M  V30 23 O 6.9282 4.4999 0.0 0
M  V30 24 C 5.1961 4.5 0.0 0
M  V30 25 C 4.3301 3.0 0.0 0
M  V30 26 C 5.1961 1.5 0.0 0
M  V30 27 O 6.9282 0.4999 0.0 0
M  V30 28 C 6.0621 0.0 0.0 0
M  V30 29 C 5.1961 5.5 0.0 0
M  V30 30 C 4.3301 4.0 0.0 0
M  V30 31 O 3.4641 2.5 0.0 0
M  V30 32 O 6.9282 -0.5 0.0 0
M  V30 33 C 5.1961 -0.5 0.0 0
M  V30 34 O 6.0621 6.0 0.0 0
M  V30 35 C 4.3301 6.0 0.0 0
M  V30 36 C 3.4641 4.5 0.0 0
M  V30 37 O 4.3301 0.0 0.0 0
M  V30 38 C 4.3301 7.0 0.0 0
M  V30 39 C 3.4641 5.5 0.0 0
M  V30 40 O 2.598 4.0 0.0 0
M  V30 41 C 3.4641 -0.5 0.0 0
M  V30 42 O 5.1961 7.4999 0.0 0
M  V30 43 C 3.4641 7.5 0.0 0
M  V30 44 C 2.598 6.0 0.0 0
M  V30 45 O 3.4641 -1.5 0.0 0
M  V30 46 C 2.598 0.0 0.0 0
M  V30 47 C 5.1961 8.4999 0.0 0
M  V30 48 C 2.598 7.0 0.0 0
M  V30 49 C 1.732 -0.5 0.0 0
M  V30 50 C 0.866 0.0 0.0 0
M  V30 51 C 0.0 -0.5 0.0 0
M  V30 END ATOM
M  V30 BEGIN BOND
M  V30 1 1 1 2
M  V30 2 1 2 3
M  V30 3 1 2 4
M  V30 4 1 2 5
M  V30 5 2 5 6
M  V30 6 1 5 7
M  V30 7 1 8 7 CFG=3
M  V30 8 1 9 8
M  V30 9 1 8 10
M  V30 10 1 9 11 CFG=3
M  V30 11 1 12 9
M  V30 12 1 13 10
M  V30 13 1 12 14
M  V30 14 1 12 15 CFG=3
M  V30 15 1 13 16 CFG=1
M  V30 16 1 17 16 CFG=3
M  V30 17 1 17 18
M  V30 18 1 17 19
M  V30 19 2 18 20
M  V30 20 1 18 21
M  V30 21 1 22 19
M  V30 22 1 20 23
M  V30 23 1 20 24
M  V30 24 2 21 25
M  V30 25 1 21 26
M  V30 26 1 22 27 CFG=3
M  V30 27 1 22 28
M  V30 28 1 24 29
M  V30 29 2 24 30
M  V30 30 1 25 31
M  V30 31 2 28 32
M  V30 32 1 28 33
M  V30 33 2 29 34
M  V30 34 1 29 35
M  V30 35 1 30 36
M  V30 36 1 33 37
M  V30 37 2 35 38
M  V30 38 1 35 39
M  V30 39 2 36 40
M  V30 40 1 37 41
M  V30 41 1 38 42
M  V30 42 1 38 43
M  V30 43 2 39 44
M  V30 44 2 41 45
M  V30 45 1 41 46
M  V30 46 1 42 47
M  V30 47 2 43 48
M  V30 48 1 46 49
M  V30 49 1 49 50
M  V30 50 1 50 51
M  V30 51 1 13 14
M  V30 52 1 22 26
M  V30 53 1 25 30
M  V30 54 1 36 39
M  V30 55 1 44 48
M  V30 END BOND
M  V30 BEGIN COLLECTION
M  V30 MDLV30/STERAC1 ATOMS=(6 8 9 12 13 17 22)
M  V30 END COLLECTION
M  V30 END CTAB
M  END
>  <Molecule Name>


>  <status>
-

>  <cas>
56124-62-0

>  <name>
VALRUBICIN

>  <ID>
820

>  <Smiles>
CCCCC(OCC([C@](C[C@H](c1c(c(C(c(c2ccc3)c3OC)=O)c3C2=O)O)O[C@H](C[C@H]2NC(C(F)(F)F)=O)O[C@H](C)[C@@H]2O)(Cc1c3O)O)=O)=O

$$$$

Actelion Java MolfileCreator 2.0

  0  0  0  0  0  0              0 V3000
M  V30 BEGIN CTAB
M  V30 COUNTS 25 26 0 0 0
M  V30 BEGIN ATOM
M  V30 1 F 7.7942 1.0 0.0 0
M  V30 2 C 7.7942 0.0 0.0 0
M  V30 3 C 6.9282 -0.5 0.0 0
M  V30 4 C 8.6602 -0.4999 0.0 0
M  V30 5 N 6.9282 -1.4999 0.0 0
M  V30 6 N 6.0621 0.0 0.0 0
M  V30 7 N 8.6602 -1.4999 0.0 0
M  V30 8 C 7.7942 -2.0 0.0 0
M  V30 9 C 5.1961 -0.5 0.0 0
M  V30 10 C 9.5262 -1.9999 0.0 0 CFG=1
M  V30 11 O 7.7942 -3.0 0.0 0
M  V30 12 O 5.1961 -1.4999 0.0 0
M  V30 13 O 4.3301 0.0 0.0 0
M  V30 14 O 9.6308 -2.9945 0.0 0
M  V30 15 C 10.4398 -1.5932 0.0 0 CFG=1
M  V30 16 C 3.4641 -0.5 0.0 0
M  V30 17 C 10.6089 -3.2024 0.0 0 CFG=2
M  V30 18 O 10.6477 -0.6151 0.0 0
M  V30 19 C 11.1089 -2.3364 0.0 0 CFG=2
M  V30 20 C 2.598 0.0 0.0 0
M  V30 21 C 11.0156 -4.1159 0.0 0
M  V30 22 O 12.1034 -2.2318 0.0 0
M  V30 23 C 1.732 -0.5 0.0 0
M  V30 24 C 0.866 0.0 0.0 0
M  V30 25 C 0.0 -0.5 0.0 0
M  V30 END ATOM
M  V30 BEGIN BOND
M  V30 1 1 1 2
M  V30 2 1 2 3
M  V30 3 2 2 4
M  V30 4 2 3 5
M  V30 5 1 3 6
M  V30 6 1 4 7
M  V30 7 1 5 8
M  V30 8 1 6 9
M  V30 9 1 10 7 CFG=3
M  V30 10 2 8 11
M  V30 11 2 9 12
M  V30 12 1 9 13
M  V30 13 1 10 14
M  V30 14 1 15 10
M  V30 15 1 13 16
M  V30 16 1 17 14
M  V30 17 1 15 18 CFG=1
M  V30 18 1 19 15
M  V30 19 1 16 20
M  V30 20 1 17 21 CFG=3
M  V30 21 1 19 22 CFG=1
M  V30 22 1 20 23
M  V30 23 1 23 24
M  V30 24 1 24 25
M  V30 25 1 7 8
M  V30 26 1 17 19
M  V30 END BOND
M  V30 BEGIN COLLECTION
M  V30 MDLV30/STERAC1 ATOMS=(4 10 15 17 19)
M  V30 END COLLECTION
M  V30 END CTAB
M  END
>  <Molecule Name>


>  <status>
-

>  <cas>
154361-50-9

>  <name>
CAPECITABINE

>  <ID>
821

>  <Smiles>
CCCCCOC(NC(C(F)=CN1[C@H]([C@H]2O)O[C@@H](C)[C@@H]2O)=NC1=O)=O

$$$$

Actelion Java MolfileCreator 2.0

  0  0  0  0  0  0              0 V3000
M  V30 BEGIN CTAB
M  V30 COUNTS 19 20 0 0 0
M  V30 BEGIN ATOM
M  V30 1 F 4.6961 2.366 0.0 0
M  V30 2 C 5.1961 1.5 0.0 0
M  V30 3 F 6.0621 2.0 0.0 0
M  V30 4 F 5.6961 0.6339 0.0 0
M  V30 5 C 4.3301 1.0 0.0 0
M  V30 6 C 3.4641 1.5 0.0 0
M  V30 7 C 4.3301 0.0 0.0 0
M  V30 8 C 2.598 0.9999 0.0 0
M  V30 9 C 3.4641 -0.4999 0.0 0
M  V30 10 C 2.598 0.0 0.0 0
M  V30 11 N 1.732 -0.5 0.0 0
M  V30 12 C 0.866 0.0 0.0 0
M  V30 13 O 0.866 1.0 0.0 0
M  V30 14 C 0.0 -0.5 0.0 0
M  V30 15 C -0.9135 -0.0932 0.0 0
M  V30 16 C -0.1045 -1.4945 0.0 0
M  V30 17 O -1.5826 -0.8364 0.0 0
M  V30 18 C -1.1214 0.8848 0.0 0
M  V30 19 N -1.0826 -1.7024 0.0 0
M  V30 END ATOM
M  V30 BEGIN BOND
M  V30 1 1 1 2
M  V30 2 1 2 3
M  V30 3 1 2 4
M  V30 4 1 2 5
M  V30 5 2 5 6
M  V30 6 1 5 7
M  V30 7 1 6 8
M  V30 8 2 7 9
M  V30 9 2 8 10
M  V30 10 1 10 11
M  V30 11 1 11 12
M  V30 12 2 12 13
M  V30 13 1 12 14
M  V30 14 2 14 15
M  V30 15 1 14 16
M  V30 16 1 15 17
M  V30 17 1 15 18
M  V30 18 2 16 19
M  V30 19 1 9 10
M  V30 20 1 17 19
M  V30 END BOND
M  V30 END CTAB
M  END
>  <Molecule Name>


>  <status>
-

>  <cas>
75706-12-6

>  <name>
LEFLUNOMIDE

>  <ID>
822

>  <Smiles>
Cc(onc1)c1C(Nc1ccc(C(F)(F)F)cc1)=O

$$$$

Actelion Java MolfileCreator 2.0

  0  0  0  0  0  0              0 V3000
M  V30 BEGIN CTAB
M  V30 COUNTS 30 31 0 0 0
M  V30 BEGIN ATOM
M  V30 1 S 5.1961 -0.75 0.0 0
M  V30 2 O 4.4461 -2.049 0.0 0
M  V30 3 O 5.9461 -2.049 0.0 0
M  V30 4 N 6.4951 0.0 0.0 0
M  V30 5 C 3.8971 0.0 0.0 0
M  V30 6 C 7.7942 -0.75 0.0 0 CFG=2
M  V30 7 C 2.598 -0.75 0.0 0
M  V30 8 C 9.0932 0.0 0.0 0
M  V30 9 C 7.7942 -2.25 0.0 0
M  V30 10 C 1.299 0.0 0.0 0
M  V30 11 O 10.3923 -0.75 0.0 0
M  V30 12 O 9.0932 1.5 0.0 0 CHG=-1
M  V30 13 C 9.0932 -3.0 0.0 0
M  V30 14 C 0.0 -0.75 0.0 0
M  V30 15 C 9.0932 -4.5 0.0 0
M  V30 16 C 10.3923 -2.25 0.0 0
M  V30 17 C 10.3923 -5.25 0.0 0
M  V30 18 C 11.6913 -3.0 0.0 0
M  V30 19 C 11.6913 -4.5 0.0 0
M  V30 20 O 12.9903 -5.25 0.0 0
M  V30 21 C 14.2894 -4.5 0.0 0
M  V30 22 C 15.5884 -5.25 0.0 0
M  V30 23 C 16.8875 -4.5 0.0 0
M  V30 24 C 18.1865 -5.25 0.0 0
M  V30 25 C 19.4855 -4.5 0.0 0
M  V30 26 C 20.7846 -5.25 0.0 0
M  V30 27 C 19.4855 -3.0 0.0 0
M  V30 28 C 22.0836 -4.5 0.0 0
M  V30 29 C 20.7846 -2.25 0.0 0
M  V30 30 N 22.0836 -3.0 0.0 0
M  V30 END ATOM
M  V30 BEGIN BOND
M  V30 1 2 1 2
M  V30 2 2 1 3
M  V30 3 1 1 4
M  V30 4 1 1 5
M  V30 5 1 6 4 CFG=3
M  V30 6 1 5 7
M  V30 7 1 6 8
M  V30 8 1 6 9
M  V30 9 1 7 10
M  V30 10 2 8 11
M  V30 11 1 8 12
M  V30 12 1 9 13
M  V30 13 1 10 14
M  V30 14 2 13 15
M  V30 15 1 13 16
M  V30 16 1 15 17
M  V30 17 2 16 18
M  V30 18 2 17 19
M  V30 19 1 19 20
M  V30 20 1 20 21
M  V30 21 1 21 22
M  V30 22 1 22 23
M  V30 23 1 23 24
M  V30 24 1 24 25
M  V30 25 1 25 26
M  V30 26 1 25 27
M  V30 27 1 26 28
M  V30 28 1 27 29
M  V30 29 1 28 30
M  V30 30 1 18 19
M  V30 31 1 29 30
M  V30 END BOND
M  V30 BEGIN COLLECTION
M  V30 MDLV30/STERAC1 ATOMS=(1 6)
M  V30 END COLLECTION
M  V30 END CTAB
M  END
>  <Molecule Name>


>  <status>
-

>  <cas>
144494-65-5

>  <name>
TIROFIBAN

>  <ID>
823

>  <Smiles>
CCCCS(NC(Cc(cc1)ccc1OCCCCC1CCNCC1)C([O-])=O)(=O)=O

$$$$
_c001
Actelion Java MolfileCreator 2.0

  0  0  0  0  0  0              0 V3000
M  V30 BEGIN CTAB
M  V30 COUNTS 28 30 0 0 0
M  V30 BEGIN ATOM
M  V30 1 O 12.6988 -2.2341 0.0 0
M  V30 2 C 11.7206 -2.4421 0.0 0 CFG=2
M  V30 3 C 11.0515 -1.6989 0.0 0
M  V30 4 C 11.4116 -3.3931 0.0 0
M  V30 5 C 10.0733 -1.9068 0.0 0
M  V30 6 C 10.4334 -3.601 0.0 0
M  V30 7 C 9.7643 -2.8579 0.0 0
M  V30 8 C 9.4042 -1.1637 0.0 0
M  V30 9 C 8.7862 -3.0658 0.0 0
M  V30 10 C 8.4261 -1.3716 0.0 0
M  V30 11 C 7.7569 -0.6284 0.0 0
M  V30 12 C 6.7788 -0.8364 0.0 0 CFG=2
M  V30 13 C 8.0659 0.3225 0.0 0
M  V30 14 C 6.1096 -0.0932 0.0 0 CFG=2
M  V30 15 C 6.2788 -1.7024 0.0 0
M  V30 16 C 7.3968 1.0657 0.0 0
M  V30 17 C 5.1961 -0.5 0.0 0 CFG=1
M  V30 18 C 6.4187 0.8577 0.0 0
M  V30 19 C 5.3665 0.5758 0.0 0
M  V30 20 C 5.3006 -1.4945 0.0 0
M  V30 21 C 4.3301 0.0 0.0 0 CFG=2
M  V30 22 C 3.4641 -0.5 0.0 0
M  V30 23 C 4.3301 1.0 0.0 0
M  V30 24 C 2.598 0.0 0.0 0
M  V30 25 C 1.732 -0.5 0.0 0
M  V30 26 C 0.866 0.0 0.0 0
M  V30 27 C 0.866 1.0 0.0 0
M  V30 28 C 0.0 -0.5 0.0 0
M  V30 END ATOM
M  V30 BEGIN BOND
M  V30 1 1 2 1 CFG=1
M  V30 2 1 2 3
M  V30 3 1 2 4
M  V30 4 1 3 5
M  V30 5 1 4 6
M  V30 6 1 5 7
M  V30 7 2 5 8
M  V30 8 2 7 9
M  V30 9 1 8 10
M  V30 10 2 10 11
M  V30 11 1 12 11
M  V30 12 1 11 13
M  V30 13 1 14 12
M  V30 14 1 12 15 CFG=1
M  V30 15 1 13 16
M  V30 16 1 17 14
M  V30 17 1 14 18
M  V30 18 1 14 19 CFG=1
M  V30 19 1 15 20
M  V30 20 1 21 17
M  V30 21 1 21 22
M  V30 22 1 21 23 CFG=3
M  V30 23 1 22 24
M  V30 24 1 24 25
M  V30 25 1 25 26
M  V30 26 1 26 27
M  V30 27 1 26 28
M  V30 28 1 6 7
M  V30 29 1 16 18
M  V30 30 1 17 20 CFG=1
M  V30 END BOND
M  V30 BEGIN COLLECTION
M  V30 MDLV30/STERAC1 ATOMS=(5 2 12 14 17 21)
M  V30 END COLLECTION
M  V30 END CTAB
M  END
>  <Molecule Name>
_c001

>  <status>
-

>  <cas>
67-97-0

>  <name>
CHOLECALCIFEROL

>  <ID>
824

>  <Smiles>
CC(C)CCC[C@H](C)[C@H](CC1)[C@](C)(CCC2)[C@H]1/C2=C/C=C(/C[C@H](CC1)O)\C1=C

$$$$

Actelion Java MolfileCreator 2.0

  0  0  0  0  0  0              0 V3000
M  V30 BEGIN CTAB
M  V30 COUNTS 25 27 0 0 0
M  V30 BEGIN ATOM
M  V30 1 S 5.2531 -3.5877 0.0 0
M  V30 2 C 5.5621 -4.5388 0.0 0
M  V30 3 C 6.0621 -3.0 0.0 0 CFG=2
M  V30 4 O 4.9743 -5.3478 0.0 0
M  V30 5 N 6.5621 -4.5388 0.0 0
M  V30 6 C 6.8711 -3.5877 0.0 0
M  V30 7 C 6.0621 -1.9999 0.0 0
M  V30 8 O 7.8222 -3.2787 0.0 0
M  V30 9 C 5.1961 -1.4999 0.0 0
M  V30 10 C 5.1961 -0.5 0.0 0
M  V30 11 C 4.3301 -1.9999 0.0 0
M  V30 12 C 4.3301 0.0 0.0 0
M  V30 13 C 3.4641 -1.5 0.0 0
M  V30 14 C 3.4641 -0.5 0.0 0
M  V30 15 O 2.598 0.0 0.0 0
M  V30 16 C 1.732 -0.5 0.0 0
M  V30 17 C 0.866 0.0 0.0 0
M  V30 18 C 0.0 -0.5 0.0 0
M  V30 19 N -0.866 0.0 0.0 0
M  V30 20 C 0.0 -1.4999 0.0 0
M  V30 21 C -1.732 -0.4999 0.0 0
M  V30 22 C -0.866 -1.9999 0.0 0
M  V30 23 C -1.732 -1.4999 0.0 0
M  V30 24 C -2.598 -1.9999 0.0 0
M  V30 25 C -2.598 -2.9999 0.0 0
M  V30 END ATOM
M  V30 BEGIN BOND
M  V30 1 1 1 2
M  V30 2 1 3 1
M  V30 3 2 2 4
M  V30 4 1 2 5
M  V30 5 1 3 6
M  V30 6 1 3 7 CFG=1
M  V30 7 2 6 8
M  V30 8 1 7 9
M  V30 9 2 9 10
M  V30 10 1 9 11
M  V30 11 1 10 12
M  V30 12 2 11 13
M  V30 13 2 12 14
M  V30 14 1 14 15
M  V30 15 1 15 16
M  V30 16 1 16 17
M  V30 17 1 17 18
M  V30 18 2 18 19
M  V30 19 1 18 20
M  V30 20 1 19 21
M  V30 21 2 20 22
M  V30 22 2 21 23
M  V30 23 1 23 24
M  V30 24 1 24 25
M  V30 25 1 5 6
M  V30 26 1 13 14
M  V30 27 1 22 23
M  V30 END BOND
M  V30 BEGIN COLLECTION
M  V30 MDLV30/STERAC1 ATOMS=(1 3)
M  V30 END COLLECTION
M  V30 END CTAB
M  END
>  <Molecule Name>


>  <status>
-

>  <cas>
111025-46-8

>  <name>
PIOGLITAZONE

>  <ID>
825

>  <Smiles>
CCc1cnc(CCOc2ccc(CC(C(N3)=O)SC3=O)cc2)cc1

$$$$

Actelion Java MolfileCreator 2.0

  0  0  0  0  0  0              0 V3000
M  V30 BEGIN CTAB
M  V30 COUNTS 29 30 0 0 0
M  V30 BEGIN ATOM
M  V30 1 S 9.5262 0.9999 0.0 0
M  V30 2 O 9.0262 0.1339 0.0 0
M  V30 3 O 10.0262 1.866 0.0 0
M  V30 4 N 8.6602 1.4999 0.0 0
M  V30 5 C 10.3923 0.4999 0.0 0
M  V30 6 C 7.7942 0.9999 0.0 0
M  V30 7 C 6.9282 1.4999 0.0 0
M  V30 8 C 7.7942 0.0 0.0 0
M  V30 9 C 6.0621 0.9999 0.0 0
M  V30 10 C 6.9282 -0.5 0.0 0
M  V30 11 C 6.0621 0.0 0.0 0
M  V30 12 O 5.1961 -0.5 0.0 0
M  V30 13 C 4.3301 0.0 0.0 0
M  V30 14 C 3.4641 -0.5 0.0 0
M  V30 15 N 2.598 0.0 0.0 0
M  V30 16 C 1.732 -0.5 0.0 0
M  V30 17 C 2.598 1.0 0.0 0
M  V30 18 C 0.866 0.0 0.0 0
M  V30 19 C 0.0 -0.5 0.0 0
M  V30 20 C -0.866 0.0 0.0 0
M  V30 21 C 0.0 -1.4999 0.0 0
M  V30 22 C -1.732 -0.4999 0.0 0
M  V30 23 C -0.866 -1.9999 0.0 0
M  V30 24 C -1.732 -1.4999 0.0 0
M  V30 25 N -2.598 -1.9999 0.0 0
M  V30 26 S -2.598 -2.9999 0.0 0
M  V30 27 O -3.598 -2.9999 0.0 0
M  V30 28 O -1.598 -2.9999 0.0 0
M  V30 29 C -2.598 -3.9999 0.0 0
M  V30 END ATOM
M  V30 BEGIN BOND
M  V30 1 2 1 2
M  V30 2 2 1 3
M  V30 3 1 1 4
M  V30 4 1 1 5
M  V30 5 1 4 6
M  V30 6 2 6 7
M  V30 7 1 6 8
M  V30 8 1 7 9
M  V30 9 2 8 10
M  V30 10 2 9 11
M  V30 11 1 11 12
M  V30 12 1 12 13
M  V30 13 1 13 14
M  V30 14 1 14 15
M  V30 15 1 15 16
M  V30 16 1 15 17
M  V30 17 1 16 18
M  V30 18 1 18 19
M  V30 19 2 19 20
M  V30 20 1 19 21
M  V30 21 1 20 22
M  V30 22 2 21 23
M  V30 23 2 22 24
M  V30 24 1 24 25
M  V30 25 1 25 26
M  V30 26 2 26 27
M  V30 27 2 26 28
M  V30 28 1 26 29
M  V30 29 1 10 11
M  V30 30 1 23 24
M  V30 END BOND
M  V30 END CTAB
M  END
>  <Molecule Name>


>  <status>
-

>  <cas>
115256-11-6

>  <name>
DOFETILIDE

>  <ID>
826

>  <Smiles>
CN(CCc(cc1)ccc1NS(C)(=O)=O)CCOc(cc1)ccc1NS(C)(=O)=O

$$$$

Actelion Java MolfileCreator 2.0

  0  0  0  0  0  0              0 V3000
M  V30 BEGIN CTAB
M  V30 COUNTS 28 31 0 0 0
M  V30 BEGIN ATOM
M  V30 1 F 2.5051 2.8204 0.0 0
M  V30 2 C 3.4997 2.9249 0.0 0
M  V30 3 C 4.0874 2.1159 0.0 0
M  V30 4 C 3.9064 3.8385 0.0 0
M  V30 5 N 5.082 2.2205 0.0 0
M  V30 6 N 3.6807 1.2024 0.0 0
M  V30 7 C 4.9009 3.943 0.0 0
M  V30 8 C 5.4887 3.134 0.0 0
M  V30 9 C 2.7026 0.9945 0.0 0
M  V30 10 C 4.1807 0.3364 0.0 0
M  V30 11 C 5.3076 4.8566 0.0 0
M  V30 12 N 6.4832 3.2385 0.0 0
M  V30 13 C 2.598 0.0 0.0 0
M  V30 14 C 3.5116 -0.4067 0.0 0 CFG=1
M  V30 15 O 4.7199 5.6656 0.0 0
M  V30 16 C 6.3022 4.9611 0.0 0
M  V30 17 C 6.89 4.1521 0.0 0
M  V30 18 C 7.071 2.4295 0.0 0
M  V30 19 N 1.732 -0.5 0.0 0
M  V30 20 C 3.7195 -1.3848 0.0 0
M  V30 21 C 6.7089 5.8746 0.0 0
M  V30 22 C 7.1755 1.435 0.0 0
M  V30 23 C 7.9846 2.0228 0.0 0
M  V30 24 O 0.866 0.0 0.0 0
M  V30 25 N 4.6705 -1.6939 0.0 0
M  V30 26 O 7.7034 5.9792 0.0 0
M  V30 27 O 6.1211 6.6837 0.0 0 CHG=-1
M  V30 28 C 0.0 -0.5 0.0 0
M  V30 END ATOM
M  V30 BEGIN BOND
M  V30 1 1 1 2
M  V30 2 2 2 3
M  V30 3 1 2 4
M  V30 4 1 3 5
M  V30 5 1 3 6
M  V30 6 2 4 7
M  V30 7 2 5 8
M  V30 8 1 6 9
M  V30 9 1 6 10
M  V30 10 1 7 11
M  V30 11 1 8 12
M  V30 12 1 9 13
M  V30 13 1 14 10
M  V30 14 2 11 15
M  V30 15 1 11 16
M  V30 16 1 12 17
M  V30 17 1 12 18
M  V30 18 2 13 19
M  V30 19 1 14 20 CFG=3
M  V30 20 1 16 21
M  V30 21 1 18 22
M  V30 22 1 18 23
M  V30 23 1 19 24
M  V30 24 1 20 25
M  V30 25 2 21 26
M  V30 26 1 21 27
M  V30 27 1 24 28
M  V30 28 1 7 8
M  V30 29 1 13 14
M  V30 30 2 16 17
M  V30 31 1 22 23
M  V30 END BOND
M  V30 BEGIN COLLECTION
M  V30 MDLV30/STERAC1 ATOMS=(1 14)
M  V30 END COLLECTION
M  V30 END CTAB
M  END
>  <Molecule Name>


>  <status>
DISCONTINUED

>  <cas>
175463-14-6

>  <name>
GEMIFLOXACIN

>  <ID>
827

>  <Smiles>
CO/N=C(\C1)/C(CN)CN1c(nc(c1c2)N(C3CC3)C=C(C([O-])=O)C1=O)c2F

$$$$

Actelion Java MolfileCreator 2.0

  0  0  0  0  0  0              0 V3000
M  V30 BEGIN CTAB
M  V30 COUNTS 23 25 0 0 0
M  V30 BEGIN ATOM
M  V30 1 S 5.1961 2.25 0.0 0
M  V30 2 O 5.9461 3.549 0.0 0
M  V30 3 O 4.4461 3.549 0.0 0
M  V30 4 N 3.8971 1.5 0.0 0
M  V30 5 C 6.4952 1.5 0.0 0
M  V30 6 C 3.8971 0.0 0.0 0
M  V30 7 C 2.598 2.25 0.0 0
M  V30 8 C 6.4952 0.0 0.0 0
M  V30 9 C 7.7942 2.25 0.0 0
M  V30 10 C 5.1961 -0.75 0.0 0
M  V30 11 C 2.598 -0.75 0.0 0
M  V30 12 C 7.7942 -0.75 0.0 0
M  V30 13 C 9.0932 1.5 0.0 0
M  V30 14 O 5.1961 -2.25 0.0 0
M  V30 15 O 2.598 -2.25 0.0 0
M  V30 16 N 1.299 0.0 0.0 0
M  V30 17 C 9.0932 0.0 0.0 0
M  V30 18 C 0.0 -0.75 0.0 0
M  V30 19 S -1.3703 -0.1398 0.0 0
M  V30 20 N -0.1567 -2.2417 0.0 0
M  V30 21 C -2.374 -1.2546 0.0 0
M  V30 22 C -1.624 -2.5536 0.0 0
M  V30 23 C -3.8658 -1.0978 0.0 0
M  V30 END ATOM
M  V30 BEGIN BOND
M  V30 1 2 1 2
M  V30 2 2 1 3
M  V30 3 1 1 4
M  V30 4 1 1 5
M  V30 5 1 4 6
M  V30 6 1 4 7
M  V30 7 2 5 8
M  V30 8 1 5 9
M  V30 9 1 6 10
M  V30 10 2 6 11
M  V30 11 1 8 12
M  V30 12 2 9 13
M  V30 13 2 10 14
M  V30 14 1 11 15
M  V30 15 1 11 16
M  V30 16 2 12 17
M  V30 17 1 16 18
M  V30 18 1 18 19
M  V30 19 2 18 20
M  V30 20 1 19 21
M  V30 21 1 20 22
M  V30 22 1 21 23
M  V30 23 1 8 10
M  V30 24 1 13 17
M  V30 25 2 21 22
M  V30 END BOND
M  V30 END CTAB
M  END
>  <Molecule Name>


>  <status>
-

>  <cas>
71125-38-7

>  <name>
MELOXICAM

>  <ID>
828

>  <Smiles>
Cc1cnc(N/C(/O)=C(/C(c2c3cccc2)=O)\N(C)S3(=O)=O)s1

$$$$

Actelion Java MolfileCreator 2.0

  0  0  0  0  0  0              0 V3000
M  V30 BEGIN CTAB
M  V30 COUNTS 23 22 0 0 0
M  V30 BEGIN ATOM
M  V30 1 O 28.5788 -0.75 0.0 0
M  V30 2 C 27.2798 0.0 0.0 0
M  V30 3 C 25.9807 -0.75 0.0 0
M  V30 4 C 24.6817 0.0 0.0 0
M  V30 5 C 23.3826 -0.75 0.0 0
M  V30 6 C 22.0836 0.0 0.0 0
M  V30 7 C 20.7846 -0.75 0.0 0
M  V30 8 C 19.4855 0.0 0.0 0
M  V30 9 C 18.1865 -0.75 0.0 0
M  V30 10 C 16.8874 0.0 0.0 0
M  V30 11 C 15.5884 -0.75 0.0 0
M  V30 12 C 14.2894 0.0 0.0 0
M  V30 13 C 12.9903 -0.75 0.0 0
M  V30 14 C 11.6913 0.0 0.0 0
M  V30 15 C 10.3923 -0.75 0.0 0
M  V30 16 C 9.0932 0.0 0.0 0
M  V30 17 C 7.7942 -0.75 0.0 0
M  V30 18 C 6.4951 0.0 0.0 0
M  V30 19 C 5.1961 -0.75 0.0 0
M  V30 20 C 3.8971 0.0 0.0 0
M  V30 21 C 2.598 -0.75 0.0 0
M  V30 22 C 1.299 0.0 0.0 0
M  V30 23 C 0.0 -0.75 0.0 0
M  V30 END ATOM
M  V30 BEGIN BOND
M  V30 1 1 1 2
M  V30 2 1 2 3
M  V30 3 1 3 4
M  V30 4 1 4 5
M  V30 5 1 5 6
M  V30 6 1 6 7
M  V30 7 1 7 8
M  V30 8 1 8 9
M  V30 9 1 9 10
M  V30 10 1 10 11
M  V30 11 1 11 12
M  V30 12 1 12 13
M  V30 13 1 13 14
M  V30 14 1 14 15
M  V30 15 1 15 16
M  V30 16 1 16 17
M  V30 17 1 17 18
M  V30 18 1 18 19
M  V30 19 1 19 20
M  V30 20 1 20 21
M  V30 21 1 21 22
M  V30 22 1 22 23
M  V30 END BOND
M  V30 END CTAB
M  END
>  <Molecule Name>


>  <status>
-

>  <cas>
661-19-8

>  <name>
DOCOSANOL

>  <ID>
829

>  <Smiles>
CCCCCCCCCCCCCCCCCCCCCCO

$$$$

Actelion Java MolfileCreator 2.0

  0  0  0  0  0  0              0 V3000
M  V30 BEGIN CTAB
M  V30 COUNTS 9 8 0 0 0
M  V30 BEGIN ATOM
M  V30 1 O 5.1961 -0.5 0.0 0
M  V30 2 C 4.3301 0.0 0.0 0
M  V30 3 O 4.3301 1.0 0.0 0 CHG=-1
M  V30 4 C 3.4641 -0.5 0.0 0
M  V30 5 C 2.598 0.0 0.0 0
M  V30 6 C 1.732 -0.5 0.0 0
M  V30 7 O 1.732 -1.5 0.0 0
M  V30 8 C 0.866 0.0 0.0 0
M  V30 9 N 0.0 -0.5 0.0 0
M  V30 END ATOM
M  V30 BEGIN BOND
M  V30 1 2 1 2
M  V30 2 1 2 3
M  V30 3 1 2 4
M  V30 4 1 4 5
M  V30 5 1 5 6
M  V30 6 2 6 7
M  V30 7 1 6 8
M  V30 8 1 8 9
M  V30 END BOND
M  V30 END CTAB
M  END
>  <Molecule Name>


>  <status>
-

>  <cas>
106-60-5

>  <name>
AMINOLEVULINIC ACID

>  <ID>
830

>  <Smiles>
NCC(CCC([O-])=O)=O

$$$$

Actelion Java MolfileCreator 2.0

  0  0  0  0  0  0              0 V3000
M  V30 BEGIN CTAB
M  V30 COUNTS 21 23 0 0 0
M  V30 BEGIN ATOM
M  V30 1 Cl 1.3009 0.0 0.0 0
M  V30 2 C 0.0 -0.751 0.0 0
M  V30 3 C -1.3009 0.0 0.0 0
M  V30 4 C 0.0 -2.2532 0.0 0
M  V30 5 C -2.6018 -0.751 0.0 0
M  V30 6 C -1.3009 -3.0043 0.0 0
M  V30 7 C -2.6018 -2.2532 0.0 0
M  V30 8 C -3.9027 0.0 0.0 0 CFG=2
M  V30 9 N -3.9027 -3.0043 0.0 0
M  V30 10 O -5.2036 -0.751 0.0 0
M  V30 11 C -3.9027 1.5021 0.0 0
M  V30 12 C -5.2036 0.751 0.0 0
M  V30 13 C -5.2036 -2.2532 0.0 0
M  V30 14 C -3.9027 3.0043 0.0 0
M  V30 15 F -5.9547 -0.5498 0.0 0
M  V30 16 F -6.5045 1.5021 0.0 0
M  V30 17 F -4.553 2.0495 0.0 0
M  V30 18 O -6.5045 -3.0043 0.0 0
M  V30 19 C -3.9027 4.5065 0.0 0
M  V30 20 C -4.6538 5.8074 0.0 0
M  V30 21 C -3.1516 5.8074 0.0 0
M  V30 END ATOM
M  V30 BEGIN BOND
M  V30 1 1 1 2
M  V30 2 2 2 3
M  V30 3 1 2 4
M  V30 4 1 3 5
M  V30 5 2 4 6
M  V30 6 2 5 7
M  V30 7 1 8 5
M  V30 8 1 7 9
M  V30 9 1 8 10
M  V30 10 1 8 11
M  V30 11 1 8 12 CFG=1
M  V30 12 1 9 13
M  V30 13 3 11 14
M  V30 14 1 12 15
M  V30 15 1 12 16
M  V30 16 1 12 17
M  V30 17 2 13 18
M  V30 18 1 14 19
M  V30 19 1 19 20
M  V30 20 1 19 21
M  V30 21 1 6 7
M  V30 22 1 10 13
M  V30 23 1 20 21
M  V30 END BOND
M  V30 BEGIN COLLECTION
M  V30 MDLV30/STERAC1 ATOMS=(1 8)
M  V30 END COLLECTION
M  V30 END CTAB
M  END
>  <Molecule Name>


>  <status>
-

>  <cas>
154598-52-4

>  <name>
EFAVIRENZ

>  <ID>
831

>  <Smiles>
O=C(Nc(cc1)c2cc1Cl)OC2(C(F)(F)F)C#CC1CC1

$$$$

Actelion Java MolfileCreator 2.0

  0  0  0  0  0  0              0 V3000
M  V30 BEGIN CTAB
M  V30 COUNTS 25 27 0 0 0
M  V30 BEGIN ATOM
M  V30 1 S 6.9282 -3.5 0.0 0 CFG=2
M  V30 2 O 6.9282 -4.5 0.0 0
M  V30 3 C 7.7942 -3.0 0.0 0
M  V30 4 C 6.0621 -3.0 0.0 0
M  V30 5 N 7.8987 -2.0054 0.0 0
M  V30 6 N 8.7077 -3.4067 0.0 0
M  V30 7 C 6.0621 -2.0 0.0 0
M  V30 8 C 8.8769 -1.7975 0.0 0
M  V30 9 C 9.3769 -2.6635 0.0 0
M  V30 10 N 6.9282 -1.5 0.0 0
M  V30 11 C 5.1961 -1.4999 0.0 0
M  V30 12 C 9.3769 -0.9315 0.0 0
M  V30 13 C 10.3769 -2.6635 0.0 0
M  V30 14 C 6.9282 -0.5 0.0 0
M  V30 15 C 5.1961 -0.5 0.0 0
M  V30 16 C 4.3301 -1.9999 0.0 0
M  V30 17 C 10.3769 -0.9315 0.0 0
M  V30 18 C 10.8769 -1.7975 0.0 0
M  V30 19 C 6.0621 0.0 0.0 0
M  V30 20 O 4.3301 0.0 0.0 0
M  V30 21 C 3.4641 -0.5 0.0 0
M  V30 22 C 2.598 0.0 0.0 0
M  V30 23 C 1.732 -0.5 0.0 0
M  V30 24 O 0.866 0.0 0.0 0
M  V30 25 C 0.0 -0.5 0.0 0
M  V30 END ATOM
M  V30 BEGIN BOND
M  V30 1 2 1 2
M  V30 2 1 1 3
M  V30 3 1 1 4 CFG=1
M  V30 4 2 3 5
M  V30 5 1 3 6
M  V30 6 1 4 7
M  V30 7 1 5 8
M  V30 8 1 6 9
M  V30 9 2 7 10
M  V30 10 1 7 11
M  V30 11 1 8 12
M  V30 12 1 9 13
M  V30 13 1 10 14
M  V30 14 2 11 15
M  V30 15 1 11 16
M  V30 16 2 12 17
M  V30 17 2 13 18
M  V30 18 2 14 19
M  V30 19 1 15 20
M  V30 20 1 20 21
M  V30 21 1 21 22
M  V30 22 1 22 23
M  V30 23 1 23 24
M  V30 24 1 24 25
M  V30 25 2 8 9
M  V30 26 1 15 19
M  V30 27 1 17 18
M  V30 END BOND
M  V30 BEGIN COLLECTION
M  V30 MDLV30/STERAC1 ATOMS=(1 1)
M  V30 END COLLECTION
M  V30 END CTAB
M  END
>  <Molecule Name>


>  <status>
-

>  <cas>
117976-89-3

>  <name>
RABEPRAZOLE

>  <ID>
832

>  <Smiles>
Cc(c(CS(c1nc(cccc2)c2[nH]1)=O)ncc1)c1OCCCOC

$$$$

Actelion Java MolfileCreator 2.0

  0  0  0  0  0  0              0 V3000
M  V30 BEGIN CTAB
M  V30 COUNTS 26 28 0 0 0
M  V30 BEGIN ATOM
M  V30 1 S 6.8689 0.5 0.0 0 CFG=2
M  V30 2 O 7.3689 1.366 0.0 0
M  V30 3 C 5.8689 0.5 0.0 0
M  V30 4 C 7.3689 -0.366 0.0 0
M  V30 5 N 5.2811 1.309 0.0 0
M  V30 6 N 5.2811 -0.309 0.0 0
M  V30 7 C 6.8689 -1.232 0.0 0
M  V30 8 C 4.3301 1.0 0.0 0
M  V30 9 C 4.3301 0.0 0.0 0
M  V30 10 N 5.8689 -1.232 0.0 0
M  V30 11 C 7.3689 -2.098 0.0 0
M  V30 12 C 3.4641 1.4999 0.0 0
M  V30 13 C 3.4641 -0.5 0.0 0
M  V30 14 C 5.3689 -2.098 0.0 0
M  V30 15 O 8.3689 -2.098 0.0 0
M  V30 16 C 6.8689 -2.9641 0.0 0
M  V30 17 C 2.598 0.9999 0.0 0
M  V30 18 C 2.598 0.0 0.0 0
M  V30 19 C 5.8689 -2.9641 0.0 0
M  V30 20 C 8.8689 -1.232 0.0 0
M  V30 21 O 7.3689 -3.8301 0.0 0
M  V30 22 O 1.732 -0.5 0.0 0
M  V30 23 C 8.3689 -3.8301 0.0 0
M  V30 24 C 0.866 0.0 0.0 0
M  V30 25 F 0.866 1.0 0.0 0
M  V30 26 F 0.0 -0.5 0.0 0
M  V30 END ATOM
M  V30 BEGIN BOND
M  V30 1 2 1 2
M  V30 2 1 1 3
M  V30 3 1 1 4 CFG=1
M  V30 4 2 3 5
M  V30 5 1 3 6
M  V30 6 1 4 7
M  V30 7 1 5 8
M  V30 8 1 6 9
M  V30 9 2 7 10
M  V30 10 1 7 11
M  V30 11 1 8 12
M  V30 12 1 9 13
M  V30 13 1 10 14
M  V30 14 1 11 15
M  V30 15 2 11 16
M  V30 16 2 12 17
M  V30 17 2 13 18
M  V30 18 2 14 19
M  V30 19 1 15 20
M  V30 20 1 16 21
M  V30 21 1 18 22
M  V30 22 1 21 23
M  V30 23 1 22 24
M  V30 24 1 24 25
M  V30 25 1 24 26
M  V30 26 2 8 9
M  V30 27 1 16 19
M  V30 28 1 17 18
M  V30 END BOND
M  V30 BEGIN COLLECTION
M  V30 MDLV30/STERAC1 ATOMS=(1 1)
M  V30 END COLLECTION
M  V30 END CTAB
M  END
>  <Molecule Name>


>  <status>
-

>  <cas>
102625-70-7

>  <name>
PANTOPRAZOLE

>  <ID>
833

>  <Smiles>
COc(ccnc1CS(c2nc(ccc(OC(F)F)c3)c3[nH]2)=O)c1OC

$$$$

Actelion Java MolfileCreator 2.0

  0  0  0  0  0  0              0 V3000
M  V30 BEGIN CTAB
M  V30 COUNTS 13 15 0 0 0
M  V30 BEGIN ATOM
M  V30 1 S 0.9705 0.9945 0.0 0
M  V30 2 C 0.866 0.0 0.0 0 CFG=1
M  V30 3 C 1.8608 1.2704 0.0 0
M  V30 4 O 1.7795 -0.4067 0.0 0
M  V30 5 C 0.0 -0.5 0.0 0
M  V30 6 C 2.5364 0.4094 0.0 0 CFG=1
M  V30 7 C 2.8554 -0.5771 0.0 0 CFG=2
M  V30 8 C 2.9922 1.0232 0.0 0
M  V30 9 C 3.8499 -0.6816 0.0 0
M  V30 10 C 1.726 0.7798 0.0 0
M  V30 11 N 4.031 1.0408 0.0 0 CFG=1
M  V30 12 C 4.4377 0.1273 0.0 0
M  V30 13 C 2.3358 1.6544 0.0 0
M  V30 END ATOM
M  V30 BEGIN BOND
M  V30 1 1 2 1
M  V30 2 1 1 3
M  V30 3 1 2 4
M  V30 4 1 2 5 CFG=1
M  V30 5 1 6 3
M  V30 6 1 7 6
M  V30 7 1 6 8
M  V30 8 1 7 9 CFG=3
M  V30 9 1 7 10
M  V30 10 1 11 8 CFG=1
M  V30 11 1 9 12
M  V30 12 1 10 13
M  V30 13 1 6 4 CFG=1
M  V30 14 1 11 12
M  V30 15 1 11 13
M  V30 END BOND
M  V30 BEGIN COLLECTION
M  V30 MDLV30/STEABS ATOMS=(2 7 11)
M  V30 MDLV30/STERAC1 ATOMS=(2 2 6)
M  V30 END COLLECTION
M  V30 END CTAB
M  END
>  <Molecule Name>


>  <status>
-

>  <cas>
107233-08-9

>  <name>
CEVIMELINE

>  <ID>
834

>  <Smiles>
C[C@H]1SC[C@]2([C@H](CC3)CCN3C2)O1

$$$$

Actelion Java MolfileCreator 2.0

  0  0  0  0  0  0              0 V3000
M  V30 BEGIN CTAB
M  V30 COUNTS 21 22 0 0 0
M  V30 BEGIN ATOM
M  V30 1 O 7.7942 2.2499 0.0 0
M  V30 2 C 6.4951 1.4999 0.0 0
M  V30 3 N 5.1961 2.25 0.0 0
M  V30 4 C 6.4951 0.0 0.0 0 CFG=1
M  V30 5 C 5.1961 3.75 0.0 0
M  V30 6 N 7.7942 -0.75 0.0 0
M  V30 7 C 5.1961 -0.7499 0.0 0
M  V30 8 C 3.8971 4.4999 0.0 0
M  V30 9 C 6.4951 4.5 0.0 0
M  V30 10 C 7.7942 -2.25 0.0 0
M  V30 11 C 9.0932 0.0 0.0 0
M  V30 12 C 5.1961 -2.2499 0.0 0
M  V30 13 C 3.8971 5.9999 0.0 0
M  V30 14 C 2.598 3.7499 0.0 0
M  V30 15 C 6.4951 6.0 0.0 0
M  V30 16 C 7.7942 3.75 0.0 0
M  V30 17 C 6.4951 -3.0 0.0 0
M  V30 18 C 10.3923 -0.75 0.0 0
M  V30 19 C 5.1961 6.75 0.0 0
M  V30 20 C 11.6913 0.0 0.0 0
M  V30 21 C 12.9903 -0.75 0.0 0
M  V30 END ATOM
M  V30 BEGIN BOND
M  V30 1 2 1 2
M  V30 2 1 2 3
M  V30 3 1 4 2 CFG=1
M  V30 4 1 3 5
M  V30 5 1 4 6
M  V30 6 1 4 7
M  V30 7 2 5 8
M  V30 8 1 5 9
M  V30 9 1 6 10
M  V30 10 1 6 11
M  V30 11 1 7 12
M  V30 12 1 8 13
M  V30 13 1 8 14
M  V30 14 2 9 15
M  V30 15 1 9 16
M  V30 16 1 10 17
M  V30 17 1 11 18
M  V30 18 2 13 19
M  V30 19 1 18 20
M  V30 20 1 20 21
M  V30 21 1 12 17
M  V30 22 1 15 19
M  V30 END BOND
M  V30 BEGIN COLLECTION
M  V30 MDLV30/STERAC1 ATOMS=(1 4)
M  V30 END COLLECTION
M  V30 END CTAB
M  END
>  <Molecule Name>


>  <status>
-

>  <cas>
27262-47-1

>  <name>
LEVOBUPIVACAINE

>  <ID>
835

>  <Smiles>
CCCCN(CCCC1)C1C(Nc1c(C)cccc1C)=O

$$$$

Actelion Java MolfileCreator 2.0

  0  0  0  0  0  0              0 V3000
M  V30 BEGIN CTAB
M  V30 COUNTS 26 28 0 0 0
M  V30 BEGIN ATOM
M  V30 1 S 3.4641 1.4999 0.0 0
M  V30 2 O 3.9641 0.6339 0.0 0
M  V30 3 O 2.9641 2.366 0.0 0
M  V30 4 N 4.3301 1.9999 0.0 0
M  V30 5 C 2.598 0.9999 0.0 0
M  V30 6 C 1.732 1.4999 0.0 0
M  V30 7 C 2.598 0.0 0.0 0
M  V30 8 C 0.866 0.9999 0.0 0
M  V30 9 C 1.732 -0.5 0.0 0
M  V30 10 C 0.866 0.0 0.0 0
M  V30 11 N 0.0 -0.5 0.0 0
M  V30 12 N -0.9135 -0.0932 0.0 0
M  V30 13 C -0.1045 -1.4945 0.0 0
M  V30 14 C -1.5826 -0.8364 0.0 0
M  V30 15 C 0.6386 -2.1636 0.0 0
M  V30 16 C -1.0826 -1.7024 0.0 0
M  V30 17 C -2.5771 -0.7318 0.0 0
M  V30 18 C 0.4307 -3.1418 0.0 0
M  V30 19 C 1.5896 -1.8546 0.0 0
M  V30 20 F -2.6817 -1.7264 0.0 0
M  V30 21 F -3.5717 -0.6273 0.0 0
M  V30 22 F -2.4726 0.2626 0.0 0
M  V30 23 C 1.1738 -3.8109 0.0 0
M  V30 24 C 2.3328 -2.5237 0.0 0
M  V30 25 C 2.1249 -3.5019 0.0 0
M  V30 26 C 2.868 -4.171 0.0 0
M  V30 END ATOM
M  V30 BEGIN BOND
M  V30 1 2 1 2
M  V30 2 2 1 3
M  V30 3 1 1 4
M  V30 4 1 1 5
M  V30 5 2 5 6
M  V30 6 1 5 7
M  V30 7 1 6 8
M  V30 8 2 7 9
M  V30 9 2 8 10
M  V30 10 1 10 11
M  V30 11 1 11 12
M  V30 12 1 11 13
M  V30 13 2 12 14
M  V30 14 1 13 15
M  V30 15 2 13 16
M  V30 16 1 14 17
M  V30 17 2 15 18
M  V30 18 1 15 19
M  V30 19 1 17 20
M  V30 20 1 17 21
M  V30 21 1 17 22
M  V30 22 1 18 23
M  V30 23 2 19 24
M  V30 24 2 23 25
M  V30 25 1 25 26
M  V30 26 1 9 10
M  V30 27 1 14 16
M  V30 28 1 24 25
M  V30 END BOND
M  V30 END CTAB
M  END
>  <Molecule Name>


>  <status>
-

>  <cas>
169590-42-5

>  <name>
CELECOXIB

>  <ID>
836

>  <Smiles>
Cc(cc1)ccc1-c1cc(C(F)(F)F)nn1-c(cc1)ccc1S(N)(=O)=O

$$$$

Actelion Java MolfileCreator 2.0

  0  0  0  0  0  0              0 V3000
M  V30 BEGIN CTAB
M  V30 COUNTS 35 37 0 0 0
M  V30 BEGIN ATOM
M  V30 1 S 9.0932 1.5 0.0 0
M  V30 2 O 7.5933 1.4999 0.0 0
M  V30 3 O 8.3433 2.799 0.0 0
M  V30 4 N 9.0932 0.0 0.0 0
M  V30 5 C 10.3923 2.25 0.0 0
M  V30 6 C 7.7942 -0.75 0.0 0
M  V30 7 C 10.3923 -0.75 0.0 0
M  V30 8 C 10.3923 3.75 0.0 0
M  V30 9 C 11.6913 1.5 0.0 0
M  V30 10 C 6.4951 0.0 0.0 0 CFG=1
M  V30 11 C 10.3923 -2.25 0.0 0
M  V30 12 C 11.6913 4.5 0.0 0
M  V30 13 C 12.9903 2.25 0.0 0
M  V30 14 O 6.4951 1.5 0.0 0
M  V30 15 C 5.1961 -0.75 0.0 0 CFG=1
M  V30 16 C 11.6913 -3.0 0.0 0
M  V30 17 C 9.0932 -3.0 0.0 0
M  V30 18 C 12.9903 3.75 0.0 0
M  V30 19 N 5.1961 -2.25 0.0 0
M  V30 20 C 3.8971 0.0 0.0 0
M  V30 21 N 14.2894 4.5 0.0 0
M  V30 22 C 6.4951 -3.0 0.0 0
M  V30 23 C 2.598 -0.75 0.0 0
M  V30 24 O 7.7942 -2.25 0.0 0
M  V30 25 O 6.4951 -4.5 0.0 0
M  V30 26 C 1.299 0.0 0.0 0
M  V30 27 C 2.598 -2.25 0.0 0
M  V30 28 C 5.1961 -5.25 0.0 0 CFG=2
M  V30 29 C 0.0 -0.75 0.0 0
M  V30 30 C 1.299 -3.0 0.0 0
M  V30 31 C 5.0393 -6.7417 0.0 0
M  V30 32 C 3.8258 -4.6399 0.0 0
M  V30 33 C 0.0 -2.25 0.0 0
M  V30 34 O 3.5721 -7.0536 0.0 0
M  V30 35 C 2.8221 -5.7546 0.0 0
M  V30 END ATOM
M  V30 BEGIN BOND
M  V30 1 2 1 2
M  V30 2 2 1 3
M  V30 3 1 1 4
M  V30 4 1 1 5
M  V30 5 1 4 6
M  V30 6 1 4 7
M  V30 7 2 5 8
M  V30 8 1 5 9
M  V30 9 1 10 6
M  V30 10 1 7 11
M  V30 11 1 8 12
M  V30 12 2 9 13
M  V30 13 1 10 14 CFG=3
M  V30 14 1 15 10
M  V30 15 1 11 16
M  V30 16 1 11 17
M  V30 17 2 12 18
M  V30 18 1 15 19 CFG=1
M  V30 19 1 15 20
M  V30 20 1 18 21
M  V30 21 1 19 22
M  V30 22 1 20 23
M  V30 23 2 22 24
M  V30 24 1 22 25
M  V30 25 2 23 26
M  V30 26 1 23 27
M  V30 27 1 28 25 CFG=3
M  V30 28 1 26 29
M  V30 29 2 27 30
M  V30 30 1 28 31
M  V30 31 1 28 32
M  V30 32 2 29 33
M  V30 33 1 31 34
M  V30 34 1 32 35
M  V30 35 1 13 18
M  V30 36 1 30 33
M  V30 37 1 34 35
M  V30 END BOND
M  V30 BEGIN COLLECTION
M  V30 MDLV30/STERAC1 ATOMS=(3 10 15 28)
M  V30 END COLLECTION
M  V30 END CTAB
M  END
>  <Molecule Name>


>  <status>
DISCONTINUED

>  <cas>
161814-49-9

>  <name>
AMPRENAVIR

>  <ID>
837

>  <Smiles>
CC(C)CN(C[C@H]([C@H](Cc1ccccc1)NC(O[C@@H]1COCC1)=O)O)S(c(cc1)ccc1N)(=O)=O

$$$$

Actelion Java MolfileCreator 2.0

  0  0  0  0  0  0              0 V3000
M  V30 BEGIN CTAB
M  V30 COUNTS 19 21 0 0 0
M  V30 BEGIN ATOM
M  V30 1 O 5.9137 -4.2818 0.0 0
M  V30 2 C 5.0688 -3.0425 0.0 0
M  V30 3 C 3.5855 -3.266 0.0 0
M  V30 4 C 5.8188 -1.7434 0.0 0
M  V30 5 C 2.4859 -2.2458 0.0 0
M  V30 6 C 3.2517 -4.7284 0.0 0
M  V30 7 C 5.2707 -0.3471 0.0 0
M  V30 8 N 2.598 -0.75 0.0 0
M  V30 9 C 1.0526 -2.6879 0.0 0
M  V30 10 C 1.8184 -5.1705 0.0 0
M  V30 11 C 3.8374 0.0949 0.0 0
M  V30 12 C 6.3703 0.6731 0.0 0
M  V30 13 C 1.299 0.0 0.0 0
M  V30 14 C 0.7188 -4.1503 0.0 0
M  V30 15 C 3.5036 1.5573 0.0 0
M  V30 16 C 6.0365 2.1354 0.0 0
M  V30 17 O 1.299 1.5 0.0 0
M  V30 18 N 0.0 -0.75 0.0 0
M  V30 19 C 4.6032 2.5776 0.0 0
M  V30 END ATOM
M  V30 BEGIN BOND
M  V30 1 2 1 2
M  V30 2 1 2 3
M  V30 3 1 2 4
M  V30 4 2 3 5
M  V30 5 1 3 6
M  V30 6 1 4 7
M  V30 7 1 5 8
M  V30 8 1 5 9
M  V30 9 2 6 10
M  V30 10 2 7 11
M  V30 11 1 7 12
M  V30 12 1 8 13
M  V30 13 2 9 14
M  V30 14 1 11 15
M  V30 15 2 12 16
M  V30 16 2 13 17
M  V30 17 1 13 18
M  V30 18 2 15 19
M  V30 19 1 8 11
M  V30 20 1 10 14
M  V30 21 1 16 19
M  V30 END BOND
M  V30 END CTAB
M  END
>  <Molecule Name>


>  <status>
-

>  <cas>
28721-07-5

>  <name>
OXCARBAZEPINE

>  <ID>
838

>  <Smiles>
NC(N(c1c(C2)cccc1)c(cccc1)c1C2=O)=O

$$$$

Actelion Java MolfileCreator 2.0

  0  0  0  0  0  0              0 V3000
M  V30 BEGIN CTAB
M  V30 COUNTS 27 30 0 0 0
M  V30 BEGIN ATOM
M  V30 1 S 3.8971 0.0 0.0 0
M  V30 2 O 4.6471 1.299 0.0 0
M  V30 3 O 3.1471 1.299 0.0 0
M  V30 4 C 5.1961 -0.75 0.0 0
M  V30 5 C 2.598 -0.75 0.0 0
M  V30 6 C 5.1961 -2.25 0.0 0
M  V30 7 C 6.4952 0.0 0.0 0
M  V30 8 C 1.299 0.0 0.0 0
M  V30 9 C 6.4952 -3.0 0.0 0
M  V30 10 C 7.7942 -0.75 0.0 0
M  V30 11 C 0.0 -0.75 0.0 0
M  V30 12 C 7.7942 -2.25 0.0 0
M  V30 13 C -1.299 0.0 0.0 0
M  V30 14 C 0.0 -2.25 0.0 0
M  V30 15 C -2.598 -0.75 0.0 0
M  V30 16 C -1.299 -3.0 0.0 0
M  V30 17 N -4.0246 -0.2864 0.0 0
M  V30 18 C -2.598 -2.25 0.0 0
M  V30 19 C -4.9063 -1.5 0.0 0
M  V30 20 C -4.0246 -2.7135 0.0 0
M  V30 21 C -4.4881 -4.1401 0.0 0
M  V30 22 C -3.4844 -5.2548 0.0 0 CFG=2
M  V30 23 N -3.7963 -6.722 0.0 0
M  V30 24 C -1.9927 -5.098 0.0 0
M  V30 25 C -2.4973 -7.472 0.0 0
M  V30 26 C -5.1666 -7.3321 0.0 0
M  V30 27 C -1.3826 -6.4683 0.0 0
M  V30 END ATOM
M  V30 BEGIN BOND
M  V30 1 2 1 2
M  V30 2 2 1 3
M  V30 3 1 1 4
M  V30 4 1 1 5
M  V30 5 2 4 6
M  V30 6 1 4 7
M  V30 7 1 5 8
M  V30 8 1 6 9
M  V30 9 2 7 10
M  V30 10 1 8 11
M  V30 11 2 9 12
M  V30 12 2 11 13
M  V30 13 1 11 14
M  V30 14 1 13 15
M  V30 15 2 14 16
M  V30 16 1 15 17
M  V30 17 2 15 18
M  V30 18 1 17 19
M  V30 19 1 18 20
M  V30 20 1 20 21
M  V30 21 1 22 21 CFG=1
M  V30 22 1 22 23
M  V30 23 1 22 24
M  V30 24 1 23 25
M  V30 25 1 23 26
M  V30 26 1 24 27
M  V30 27 1 10 12
M  V30 28 1 16 18
M  V30 29 2 19 20
M  V30 30 1 25 27
M  V30 END BOND
M  V30 BEGIN COLLECTION
M  V30 MDLV30/STERAC1 ATOMS=(1 22)
M  V30 END COLLECTION
M  V30 END CTAB
M  END
>  <Molecule Name>


>  <status>
-

>  <cas>
143322-58-1

>  <name>
ELETRIPTAN

>  <ID>
839

>  <Smiles>
CN1C(Cc2c[nH]c3c2ccc(CCS(c2ccccc2)(=O)=O)c3)CCC1

$$$$

Actelion Java MolfileCreator 2.0

  0  0  0  0  0  0              0 V3000
M  V30 BEGIN CTAB
M  V30 COUNTS 85 85 0 0 0
M  V30 BEGIN ATOM
M  V30 1 O 5.3517 -3.3706 0.0 0
M  V30 2 C 6.8417 -3.5849 0.0 0
M  V30 3 N 7.1966 -2.1219 0.0 0
M  V30 4 C 6.7701 -5.0885 0.0 0 CFG=1
M  V30 5 C 7.822 -0.7526 0.0 0 CFG=2
M  V30 6 C 5.7741 -1.6296 0.0 0
M  V30 7 N 6.9843 -6.5785 0.0 0
M  V30 8 C 5.2665 -5.1601 0.0 0
M  V30 9 C 8.6952 0.4735 0.0 0
M  V30 10 C 6.5183 0.0 0.0 0 CFG=2
M  V30 11 C 7.4767 -8.0011 0.0 0
M  V30 12 C 5.5214 -6.9334 0.0 0
M  V30 13 C 4.4526 -3.8937 0.0 0
M  V30 14 C 4.5767 -6.4981 0.0 0
M  V30 15 O 7.6058 1.3756 0.0 0
M  V30 16 N 9.7846 1.5123 0.0 0
M  V30 17 O 5.2146 -0.7526 0.0 0
M  V30 18 C 6.5183 1.5053 0.0 0 CFG=1
M  V30 19 O 6.1074 -8.6264 0.0 0
M  V30 20 C 8.2294 -9.3048 0.0 0 CFG=1
M  V30 21 C 11.051 2.3262 0.0 0 CFG=2
M  V30 22 C 5.2146 2.258 0.0 0
M  V30 23 C 7.822 2.258 0.0 0
M  V30 24 N 9.2152 -10.4424 0.0 0
M  V30 25 C 7.0031 -10.1779 0.0 0
M  V30 26 C 12.4485 2.8856 0.0 0
M  V30 27 C 10.3612 3.6642 0.0 0
M  V30 28 C 5.2146 3.7633 0.0 0
M  V30 29 C 10.3984 -11.373 0.0 0
M  V30 30 C 8.2165 -11.444 0.0 0
M  V30 31 C 7.1462 -11.6765 0.0 0
M  V30 32 O 12.0244 4.33 0.0 0
M  V30 33 N 13.9267 3.1705 0.0 0
M  V30 34 C 8.8576 3.7358 0.0 0
M  V30 35 C 3.911 4.516 0.0 0
M  V30 36 O 9.5846 -12.6394 0.0 0
M  V30 37 C 11.7365 -12.0628 0.0 0 CFG=1
M  V30 38 C 8.5156 -12.3018 0.0 0
M  V30 39 C 5.92 -12.5497 0.0 0
M  V30 40 C 15.432 3.1705 0.0 0
M  V30 41 C 13.7836 4.6691 0.0 0
M  V30 42 C 3.911 6.0214 0.0 0
M  V30 43 N 13.1808 -12.4869 0.0 0
M  V30 44 C 11.177 -13.4603 0.0 0
M  V30 45 C 16.9102 2.8856 0.0 0
M  V30 46 C 14.6794 -12.63 0.0 0
M  V30 47 C 12.8822 -13.8694 0.0 0
M  V30 48 C 12.1075 -14.6436 0.0 0
M  V30 49 O 17.3343 4.33 0.0 0
M  V30 50 N 18.3077 2.3262 0.0 0
M  V30 51 O 14.6794 -14.1353 0.0 0
M  V30 52 C 16.1779 -12.4869 0.0 0 CFG=2
M  V30 53 C 13.5975 -14.4293 0.0 0
M  V30 54 C 11.548 -16.0411 0.0 0
M  V30 55 C 19.5741 1.5123 0.0 0 CFG=2
M  V30 56 C 18.9975 3.6642 0.0 0
M  V30 57 N 17.6223 -12.0628 0.0 0
M  V30 58 C 16.4628 -13.965 0.0 0
M  V30 59 C 20.6636 0.4735 0.0 0
M  V30 60 C 20.5046 2.6956 0.0 0
M  V30 61 C 18.9603 -11.373 0.0 0
M  V30 62 O 21.7115 1.4234 0.0 0
M  V30 63 N 21.5367 -0.7526 0.0 0
M  V30 64 C 21.9947 2.4814 0.0 0
M  V30 65 O 19.7741 -12.6394 0.0 0
M  V30 66 C 20.1436 -10.4424 0.0 0 CFG=1
M  V30 67 C 22.1621 -2.1219 0.0 0 CFG=2
M  V30 68 C 22.5541 1.0838 0.0 0
M  V30 69 C 22.9252 3.6646 0.0 0
M  V30 70 N 21.1294 -9.3048 0.0 0
M  V30 71 C 21.1824 -11.5319 0.0 0
M  V30 72 C 22.517 -3.5849 0.0 0
M  V30 73 C 23.5846 -1.6296 0.0 0
M  V30 74 C 21.882 -8.0011 0.0 0
M  V30 75 O 24.007 -3.3706 0.0 0
M  V30 76 N 22.5886 -5.0885 0.0 0
M  V30 77 C 24.7223 -2.6154 0.0 0
M  V30 78 C 23.8695 -0.1514 0.0 0
M  V30 79 O 23.1814 -8.5598 0.0 0
M  V30 80 C 22.3744 -6.5785 0.0 0 CFG=1
M  V30 81 C 24.0923 -5.1601 0.0 0
M  V30 82 C 23.8373 -6.9334 0.0 0
M  V30 83 C 24.2614 -8.3778 0.0 0
M  V30 84 C 23.2226 -9.4673 0.0 0
M  V30 85 C 25.7243 -8.7327 0.0 0
M  V30 END ATOM
M  V30 BEGIN BOND
M  V30 1 2 1 2
M  V30 2 1 2 3
M  V30 3 1 4 2
M  V30 4 1 5 3 CFG=1
M  V30 5 1 3 6
M  V30 6 1 4 7
M  V30 7 1 4 8 CFG=1
M  V30 8 1 5 9
M  V30 9 1 10 5
M  V30 10 1 7 11
M  V30 11 1 7 12
M  V30 12 1 8 13
M  V30 13 1 8 14
M  V30 14 2 9 15
M  V30 15 1 9 16
M  V30 16 1 10 17 CFG=3
M  V30 17 1 18 10
M  V30 18 2 11 19
M  V30 19 1 20 11
M  V30 20 1 21 16
M  V30 21 1 18 22
M  V30 22 1 18 23 CFG=1
M  V30 23 1 20 24
M  V30 24 1 20 25 CFG=1
M  V30 25 1 21 26
M  V30 26 1 21 27 CFG=1
M  V30 27 1 22 28
M  V30 28 1 24 29
M  V30 29 1 24 30
M  V30 30 1 25 31
M  V30 31 2 26 32
M  V30 32 1 26 33
M  V30 33 1 27 34
M  V30 34 2 28 35
M  V30 35 2 29 36
M  V30 36 1 37 29
M  V30 37 1 31 38
M  V30 38 1 31 39
M  V30 39 1 33 40
M  V30 40 1 33 41
M  V30 41 1 35 42
M  V30 42 1 37 43
M  V30 43 1 37 44 CFG=1
M  V30 44 1 40 45
M  V30 45 1 43 46
M  V30 46 1 43 47
M  V30 47 1 44 48
M  V30 48 2 45 49
M  V30 49 1 45 50
M  V30 50 2 46 51
M  V30 51 1 52 46
M  V30 52 1 48 53
M  V30 53 1 48 54
M  V30 54 1 55 50
M  V30 55 1 50 56
M  V30 56 1 52 57
M  V30 57 1 52 58 CFG=3
M  V30 58 1 55 59
M  V30 59 1 55 60 CFG=1
M  V30 60 1 57 61
M  V30 61 2 59 62
M  V30 62 1 59 63
M  V30 63 1 60 64
M  V30 64 2 61 65
M  V30 65 1 66 61
M  V30 66 1 67 63
M  V30 67 1 64 68
M  V30 68 1 64 69
M  V30 69 1 66 70
M  V30 70 1 66 71 CFG=1
M  V30 71 1 67 72
M  V30 72 1 67 73 CFG=1
M  V30 73 1 70 74
M  V30 74 2 72 75
M  V30 75 1 72 76
M  V30 76 1 73 77
M  V30 77 1 73 78
M  V30 78 2 74 79
M  V30 79 1 80 74
M  V30 80 1 76 81
M  V30 81 1 80 82 CFG=1
M  V30 82 1 82 83
M  V30 83 1 83 84
M  V30 84 1 83 85
M  V30 85 1 76 80
M  V30 END BOND
M  V30 BEGIN COLLECTION
M  V30 MDLV30/STERAC1 ATOMS=(12 4 5 10 18 20 21 37 52 55 66 67 80)
M  V30 END COLLECTION
M  V30 END CTAB
M  END
>  <Molecule Name>


>  <status>
-

>  <cas>
59865-13-3

>  <name>
CYCLOSPORINE

>  <ID>
840

>  <Smiles>
CC[C@@H](C(N(C)CC(N(C)[C@@H](CC(C)C)C(N[C@@H](C(C)C)C(N(C)[C@@H](CC(C)C)C(N[C@@H](C)C(N[C@H](C)C(N(C)[C@@H](CC(C)C)C(N(C)[C@@H](CC(C)C)C(N(C)[C@@H](C(C)C)C(N(C)[C@H]1[C@@H]([C@H](C)C/C=C/C)O)=O)=O)=O)=O)=O)=O)=O)=O)=O)=O)NC1=O

$$$$

Actelion Java MolfileCreator 2.0

  0  0  0  0  0  0              0 V3000
M  V30 BEGIN CTAB
M  V30 COUNTS 63 68 0 0 0
M  V30 BEGIN ATOM
M  V30 1 O 2.9008 -3.3261 0.0 0
M  V30 2 C 2.3763 -2.4747 0.0 0
M  V30 3 N 3.152 -1.8435 0.0 0
M  V30 4 C 1.4637 -2.8836 0.0 0
M  V30 5 C 3.4641 -0.5 0.0 0
M  V30 6 C 0.4339 -2.9824 0.0 0
M  V30 7 C 1.75 -3.8417 0.0 0
M  V30 8 C 4.3301 0.0 0.0 0
M  V30 9 C 2.598 0.0 0.0 0
M  V30 10 C -0.4779 -2.9059 0.0 0
M  V30 11 O 5.1704 -0.5421 0.0 0
M  V30 12 C 4.4618 1.3298 0.0 0
M  V30 13 C 2.598 0.9999 0.0 0
M  V30 14 C 1.732 -0.5 0.0 0
M  V30 15 C -1.3599 -2.3521 0.0 0
M  V30 16 C 5.2321 1.9675 0.0 0
M  V30 17 C 3.5244 1.678 0.0 0
M  V30 18 O 1.7062 1.4524 0.0 0
M  V30 19 N 1.732 -1.5 0.0 0
M  V30 20 C -2.2631 -1.9981 0.0 0 CFG=2
M  V30 21 O 6.1695 1.6193 0.0 0
M  V30 22 C 5.0649 2.9534 0.0 0
M  V30 23 C 3.3572 2.664 0.0 0
M  V30 24 N 0.866 -2.0 0.0 0
M  V30 25 C -2.8942 -1.2224 0.0 0 CFG=1
M  V30 26 C -2.8926 -2.7474 0.0 0
M  V30 27 C 4.1275 3.3017 0.0 0
M  V30 28 C 5.8352 3.5911 0.0 0
M  V30 29 C 2.5127 3.1995 0.0 0
M  V30 30 C 0.9119 -3.1155 0.0 0
M  V30 31 C 0.0 -1.5 0.0 0
M  V30 32 O -3.7457 -1.7469 0.0 0
M  V30 33 C -3.3031 -0.3099 0.0 0 CFG=1
M  V30 34 O 3.7591 4.2313 0.0 0
M  V30 35 O 1.5831 2.831 0.0 0
M  V30 36 C 2.7611 4.1682 0.0 0 CFG=1
M  V30 37 C 0.0 -3.5 0.0 0
M  V30 38 C -0.866 -2.0 0.0 0
M  V30 39 C -3.4619 0.6774 0.0 0 CFG=2
M  V30 40 C -4.2613 -0.5961 0.0 0
M  V30 41 O 1.2526 4.5136 0.0 0
M  V30 42 C 2.8419 5.1649 0.0 0
M  V30 43 N -0.9385 -3.0564 0.0 0
M  V30 44 O -4.4615 0.6488 0.0 0
M  V30 45 C -3.3597 1.6721 0.0 0 CFG=1
M  V30 46 C 0.2653 4.3548 0.0 0
M  V30 47 C -1.732 -3.5 0.0 0
M  V30 48 C -3.0035 2.6065 0.0 0 CFG=1
M  V30 49 C -4.3326 1.9033 0.0 0
M  V30 50 C -0.7294 4.457 0.0 0
M  V30 51 C -1.8365 -4.4945 0.0 0
M  V30 52 C -2.6237 -3.1237 0.0 0
M  V30 53 O -3.8835 3.0816 0.0 0
M  V30 54 C -2.4177 3.4169 0.0 0 CFG=2
M  V30 55 C -1.642 4.0481 0.0 0 CFG=2
M  V30 56 C -2.8147 -4.7024 0.0 0
M  V30 57 C -3.3147 -3.8364 0.0 0
M  V30 58 C -3.912 4.0812 0.0 0
M  V30 59 C -3.1141 4.054 0.0 0
M  V30 60 O -2.1665 4.8995 0.0 0
M  V30 61 O -3.0606 4.6057 0.0 0
M  V30 62 C -4.7919 4.5563 0.0 0
M  V30 63 C -1.6914 5.7794 0.0 0
M  V30 END ATOM
M  V30 BEGIN BOND
M  V30 1 2 1 2
M  V30 2 1 2 3
M  V30 3 1 2 4
M  V30 4 1 3 5
M  V30 5 2 4 6
M  V30 6 1 4 7
M  V30 7 2 5 8
M  V30 8 1 5 9
M  V30 9 1 6 10
M  V30 10 1 8 11
M  V30 11 1 8 12
M  V30 12 2 9 13
M  V30 13 1 9 14
M  V30 14 2 10 15
M  V30 15 2 12 16
M  V30 16 1 12 17
M  V30 17 1 13 18
M  V30 18 2 14 19
M  V30 19 1 20 15
M  V30 20 1 16 21
M  V30 21 1 16 22
M  V30 22 2 17 23
M  V30 23 1 19 24
M  V30 24 1 25 20
M  V30 25 1 20 26 CFG=1
M  V30 26 2 22 27
M  V30 27 1 22 28
M  V30 28 1 23 29
M  V30 29 1 24 30
M  V30 30 1 24 31
M  V30 31 1 25 32 CFG=1
M  V30 32 1 33 25
M  V30 33 1 27 34
M  V30 34 2 29 35
M  V30 35 1 36 29
M  V30 36 1 30 37
M  V30 37 1 31 38
M  V30 38 1 39 33
M  V30 39 1 33 40 CFG=3
M  V30 40 1 36 41
M  V30 41 1 36 42 CFG=1
M  V30 42 1 37 43
M  V30 43 1 39 44 CFG=3
M  V30 44 1 45 39
M  V30 45 1 41 46
M  V30 46 1 43 47
M  V30 47 1 48 45
M  V30 48 1 45 49 CFG=3
M  V30 49 2 46 50
M  V30 50 1 47 51
M  V30 51 1 47 52
M  V30 52 1 48 53 CFG=1
M  V30 53 1 54 48
M  V30 54 1 55 50
M  V30 55 1 51 56
M  V30 56 1 52 57
M  V30 57 1 53 58
M  V30 58 1 54 59 CFG=1
M  V30 59 1 55 60 CFG=3
M  V30 60 2 58 61
M  V30 61 1 58 62
M  V30 62 1 60 63
M  V30 63 1 13 17
M  V30 64 1 23 27
M  V30 65 1 34 36
M  V30 66 1 38 43
M  V30 67 1 54 55
M  V30 68 1 56 57
M  V30 END BOND
M  V30 BEGIN COLLECTION
M  V30 MDLV30/STERAC1 ATOMS=(9 20 25 33 36 39 45 48 54 55)
M  V30 END COLLECTION
M  V30 END CTAB
M  END
>  <Molecule Name>


>  <status>
-

>  <cas>
61379-65-5

>  <name>
RIFAPENTINE

>  <ID>
841

>  <Smiles>
C[C@H]([C@@H]([C@H](C)[C@H]([C@@H](C)[C@@H](/C=C/O[C@@](C)(C(c1c2c(O)c3/C=N/N(CC4)CCN4C4CCCC4)=O)Oc1c(C)c(O)c2c(O)c3NC(/C(/C)=C\C=C\[C@H]1C)=O)OC)OC(C)=O)O)[C@@H]1O

$$$$

Actelion Java MolfileCreator 2.0

  0  0  0  0  0  0              0 V3000
M  V30 BEGIN CTAB
M  V30 COUNTS 14 15 0 0 0
M  V30 BEGIN ATOM
M  V30 1 O 7.443 -2.0574 0.0 0
M  V30 2 C 6.4393 -0.9427 0.0 0
M  V30 3 N 6.9028 0.4838 0.0 0
M  V30 4 N 4.972 -1.2546 0.0 0
M  V30 5 N 5.8991 1.5985 0.0 0
M  V30 6 C 8.37 0.7957 0.0 0
M  V30 7 C 3.9683 -0.1398 0.0 0
M  V30 8 C 4.222 -2.5536 0.0 0
M  V30 9 N 4.4319 1.2866 0.0 0
M  V30 10 C 2.598 -0.75 0.0 0
M  V30 11 N 2.7548 -2.2417 0.0 0
M  V30 12 C 1.299 0.0 0.0 0
M  V30 13 O 1.299 1.5 0.0 0
M  V30 14 N 0.0 -0.75 0.0 0
M  V30 END ATOM
M  V30 BEGIN BOND
M  V30 1 2 1 2
M  V30 2 1 2 3
M  V30 3 1 2 4
M  V30 4 1 3 5
M  V30 5 1 3 6
M  V30 6 1 4 7
M  V30 7 1 4 8
M  V30 8 2 5 9
M  V30 9 2 7 10
M  V30 10 2 8 11
M  V30 11 1 10 12
M  V30 12 2 12 13
M  V30 13 1 12 14
M  V30 14 1 7 9
M  V30 15 1 10 11
M  V30 END BOND
M  V30 END CTAB
M  END
>  <Molecule Name>


>  <status>
-

>  <cas>
85622-93-1

>  <name>
TEMOZOLOMIDE

>  <ID>
842

>  <Smiles>
CN1N=Nc2c(C(N)=O)ncn2C1=O

$$$$

Actelion Java MolfileCreator 2.0

  0  0  0  0  0  0              0 V3000
M  V30 BEGIN CTAB
M  V30 COUNTS 12 12 0 0 0
M  V30 BEGIN ATOM
M  V30 1 O 3.4921 -1.7787 0.0 0
M  V30 2 C 2.541 -2.0877 0.0 0
M  V30 3 N 1.732 -1.5 0.0 0
M  V30 4 C 2.232 -3.0388 0.0 0
M  V30 5 C 1.732 -0.5 0.0 0 CFG=2
M  V30 6 C 0.923 -2.0877 0.0 0
M  V30 7 C 1.232 -3.0388 0.0 0
M  V30 8 C 2.598 0.0 0.0 0
M  V30 9 C 0.866 0.0 0.0 0
M  V30 10 O 3.4641 -0.5 0.0 0
M  V30 11 N 2.598 1.0 0.0 0
M  V30 12 C 0.0 -0.5 0.0 0
M  V30 END ATOM
M  V30 BEGIN BOND
M  V30 1 2 1 2
M  V30 2 1 2 3
M  V30 3 1 2 4
M  V30 4 1 5 3 CFG=1
M  V30 5 1 3 6
M  V30 6 1 4 7
M  V30 7 1 5 8
M  V30 8 1 5 9
M  V30 9 2 8 10
M  V30 10 1 8 11
M  V30 11 1 9 12
M  V30 12 1 6 7
M  V30 END BOND
M  V30 BEGIN COLLECTION
M  V30 MDLV30/STERAC1 ATOMS=(1 5)
M  V30 END COLLECTION
M  V30 END CTAB
M  END
>  <Molecule Name>


>  <status>
-

>  <cas>
102767-28-2

>  <name>
LEVETIRACETAM

>  <ID>
843

>  <Smiles>
CCC(C(N)=O)N(CCC1)C1=O

$$$$

Actelion Java MolfileCreator 2.0

  0  0  0  0  0  0              0 V3000
M  V30 BEGIN CTAB
M  V30 COUNTS 23 23 0 0 0
M  V30 BEGIN ATOM
M  V30 1 O 6.9282 -0.5 0.0 0
M  V30 2 C 6.0621 0.0 0.0 0
M  V30 3 O 6.0621 0.9999 0.0 0 CHG=-1
M  V30 4 C 5.1961 -0.5 0.0 0
M  V30 5 O 4.3301 0.0 0.0 0
M  V30 6 C 5.1961 -1.4999 0.0 0
M  V30 7 C 3.4641 -0.5 0.0 0 CFG=1
M  V30 8 C 4.3301 -1.9999 0.0 0 CFG=2
M  V30 9 C 3.4641 -1.4999 0.0 0 CFG=2
M  V30 10 C 2.598 0.0 0.0 0 CFG=1
M  V30 11 N 4.3301 -2.9999 0.0 0
M  V30 12 N 2.598 -1.9999 0.0 0
M  V30 13 O 1.732 -0.5 0.0 0
M  V30 14 C 2.598 0.9999 0.0 0 CFG=1
M  V30 15 C 5.1961 -3.4999 0.0 0
M  V30 16 C 2.598 -2.9999 0.0 0
M  V30 17 O 3.4641 1.4999 0.0 0
M  V30 18 C 1.732 1.4999 0.0 0
M  V30 19 N 6.0621 -3.0 0.0 0
M  V30 20 N 5.1961 -4.4999 0.0 0
M  V30 21 O 3.4641 -3.5 0.0 0
M  V30 22 C 1.732 -3.5 0.0 0
M  V30 23 O 1.732 2.4999 0.0 0
M  V30 END ATOM
M  V30 BEGIN BOND
M  V30 1 2 1 2
M  V30 2 1 2 3
M  V30 3 1 2 4
M  V30 4 1 4 5
M  V30 5 2 4 6
M  V30 6 1 7 5 CFG=1
M  V30 7 1 8 6
M  V30 8 1 9 7
M  V30 9 1 10 7
M  V30 10 1 8 11 CFG=1
M  V30 11 1 9 12 CFG=3
M  V30 12 1 10 13 CFG=1
M  V30 13 1 14 10
M  V30 14 2 11 15
M  V30 15 1 12 16
M  V30 16 1 14 17 CFG=3
M  V30 17 1 14 18
M  V30 18 1 15 19
M  V30 19 1 15 20
M  V30 20 2 16 21
M  V30 21 1 16 22
M  V30 22 1 18 23
M  V30 23 1 8 9
M  V30 END BOND
M  V30 BEGIN COLLECTION
M  V30 MDLV30/STERAC1 ATOMS=(5 7 8 9 10 14)
M  V30 END COLLECTION
M  V30 END CTAB
M  END
>  <Molecule Name>


>  <status>
-

>  <cas>
139110-80-8

>  <name>
ZANAMIVIR

>  <ID>
844

>  <Smiles>
CC(N[C@H]([C@@H]([C@H]([C@H](CO)O)O)OC(C([O-])=O)=C1)[C@@H]1N=C(N)N)=O

$$$$

Actelion Java MolfileCreator 2.0

  0  0  0  0  0  0              0 V3000
M  V30 BEGIN CTAB
M  V30 COUNTS 15 16 0 0 0
M  V30 BEGIN ATOM
M  V30 1 N 2.8147 -1.7024 0.0 0
M  V30 2 C 3.3147 -0.8364 0.0 0
M  V30 3 C 1.8365 -1.4945 0.0 0
M  V30 4 N 2.6455 -0.0932 0.0 0
M  V30 5 C 1.732 -0.5 0.0 0
M  V30 6 C 0.866 0.0 0.0 0 CFG=1
M  V30 7 C 0.866 1.0 0.0 0
M  V30 8 C 0.0 -0.5 0.0 0
M  V30 9 C 1.732 1.4999 0.0 0
M  V30 10 C 0.0 1.4999 0.0 0
M  V30 11 C 1.732 2.5 0.0 0
M  V30 12 C 2.598 0.9999 0.0 0
M  V30 13 C 0.0 2.5 0.0 0
M  V30 14 C 0.866 3.0 0.0 0
M  V30 15 C 2.598 3.0 0.0 0
M  V30 END ATOM
M  V30 BEGIN BOND
M  V30 1 2 1 2
M  V30 2 1 1 3
M  V30 3 1 2 4
M  V30 4 2 3 5
M  V30 5 1 6 5
M  V30 6 1 6 7
M  V30 7 1 6 8 CFG=3
M  V30 8 2 7 9
M  V30 9 1 7 10
M  V30 10 1 9 11
M  V30 11 1 9 12
M  V30 12 2 10 13
M  V30 13 2 11 14
M  V30 14 1 11 15
M  V30 15 1 4 5
M  V30 16 1 13 14
M  V30 END BOND
M  V30 BEGIN COLLECTION
M  V30 MDLV30/STERAC1 ATOMS=(1 6)
M  V30 END COLLECTION
M  V30 END CTAB
M  END
>  <Molecule Name>


>  <status>
-

>  <cas>
113775-47-6

>  <name>
DEXMEDETOMIDINE

>  <ID>
845

>  <Smiles>
CC(c1cnc[nH]1)c1c(C)c(C)ccc1

$$$$

Actelion Java MolfileCreator 2.0

  0  0  0  0  0  0              0 V3000
M  V30 BEGIN CTAB
M  V30 COUNTS 22 24 0 0 0
M  V30 BEGIN ATOM
M  V30 1 S 3.4641 1.4999 0.0 0
M  V30 2 O 3.9641 0.6339 0.0 0
M  V30 3 O 2.9641 2.366 0.0 0
M  V30 4 C 2.598 0.9999 0.0 0
M  V30 5 C 4.3301 1.9999 0.0 0
M  V30 6 C 1.732 1.4999 0.0 0
M  V30 7 C 2.598 0.0 0.0 0
M  V30 8 C 0.866 0.9999 0.0 0
M  V30 9 C 1.732 -0.5 0.0 0
M  V30 10 C 0.866 0.0 0.0 0
M  V30 11 C 0.0 -0.5 0.0 0
M  V30 12 C -0.9135 -0.0932 0.0 0
M  V30 13 C -0.1045 -1.4945 0.0 0
M  V30 14 C -1.1214 0.8848 0.0 0
M  V30 15 C -1.5826 -0.8364 0.0 0
M  V30 16 O -1.0826 -1.7024 0.0 0
M  V30 17 C -0.3783 1.554 0.0 0
M  V30 18 C -2.0725 1.1939 0.0 0
M  V30 19 O -2.5771 -0.7318 0.0 0
M  V30 20 C -0.5862 2.5321 0.0 0
M  V30 21 C -2.2804 2.172 0.0 0
M  V30 22 C -1.5372 2.8411 0.0 0
M  V30 END ATOM
M  V30 BEGIN BOND
M  V30 1 2 1 2
M  V30 2 2 1 3
M  V30 3 1 1 4
M  V30 4 1 1 5
M  V30 5 2 4 6
M  V30 6 1 4 7
M  V30 7 1 6 8
M  V30 8 2 7 9
M  V30 9 2 8 10
M  V30 10 1 10 11
M  V30 11 2 11 12
M  V30 12 1 11 13
M  V30 13 1 12 14
M  V30 14 1 12 15
M  V30 15 1 13 16
M  V30 16 2 14 17
M  V30 17 1 14 18
M  V30 18 2 15 19
M  V30 19 1 17 20
M  V30 20 2 18 21
M  V30 21 2 20 22
M  V30 22 1 9 10
M  V30 23 1 15 16
M  V30 24 1 21 22
M  V30 END BOND
M  V30 END CTAB
M  END
>  <Molecule Name>


>  <status>
DISCONTINUED

>  <cas>
162011-90-7

>  <name>
ROFECOXIB

>  <ID>
846

>  <Smiles>
CS(c(cc1)ccc1C(COC1=O)=C1c1ccccc1)(=O)=O

$$$$

Actelion Java MolfileCreator 2.0

  0  0  0  0  0  0              0 V3000
M  V30 BEGIN CTAB
M  V30 COUNTS 26 28 0 0 0
M  V30 BEGIN ATOM
M  V30 1 O 2.598 -0.75 0.0 0
M  V30 2 C 1.299 0.0 0.0 0
M  V30 3 O 1.299 1.5 0.0 0 CHG=-1
M  V30 4 C 0.0 -0.75 0.0 0
M  V30 5 C -1.299 0.0 0.0 0
M  V30 6 C 0.0 -2.25 0.0 0
M  V30 7 C -2.598 -0.75 0.0 0
M  V30 8 C -1.299 -3.0 0.0 0
M  V30 9 C -2.598 -2.25 0.0 0
M  V30 10 C -3.8971 -3.0 0.0 0
M  V30 11 C -5.1961 -2.25 0.0 0
M  V30 12 C -3.8971 -4.5 0.0 0
M  V30 13 C -5.1961 -0.75 0.0 0
M  V30 14 C -6.4952 -3.0 0.0 0
M  V30 15 C -6.4952 0.0 0.0 0
M  V30 16 C -3.8971 0.0 0.0 0
M  V30 17 C -7.7942 -2.25 0.0 0
M  V30 18 C -7.7942 -0.75 0.0 0
M  V30 19 C -9.0932 -3.0 0.0 0
M  V30 20 C -9.0932 0.0 0.0 0
M  V30 21 C -10.3923 -2.25 0.0 0
M  V30 22 C -9.8432 -4.299 0.0 0
M  V30 23 C -8.3432 -4.299 0.0 0
M  V30 24 C -10.3923 -0.75 0.0 0
M  V30 25 C -8.3432 1.299 0.0 0
M  V30 26 C -9.8432 1.299 0.0 0
M  V30 END ATOM
M  V30 BEGIN BOND
M  V30 1 2 1 2
M  V30 2 1 2 3
M  V30 3 1 2 4
M  V30 4 2 4 5
M  V30 5 1 4 6
M  V30 6 1 5 7
M  V30 7 2 6 8
M  V30 8 2 7 9
M  V30 9 1 9 10
M  V30 10 1 10 11
M  V30 11 2 10 12
M  V30 12 2 11 13
M  V30 13 1 11 14
M  V30 14 1 13 15
M  V30 15 1 13 16
M  V30 16 2 14 17
M  V30 17 2 15 18
M  V30 18 1 17 19
M  V30 19 1 18 20
M  V30 20 1 19 21
M  V30 21 1 19 22
M  V30 22 1 19 23
M  V30 23 1 20 24
M  V30 24 1 20 25
M  V30 25 1 20 26
M  V30 26 1 8 9
M  V30 27 1 17 18
M  V30 28 1 21 24
M  V30 END BOND
M  V30 END CTAB
M  END
>  <Molecule Name>


>  <status>
-

>  <cas>
153559-49-0

>  <name>
BEXAROTENE

>  <ID>
847

>  <Smiles>
CC(C)(CCC(C)(C)c1c2)c1cc(C)c2C(c(cc1)ccc1C([O-])=O)=C

$$$$

Actelion Java MolfileCreator 2.0

  0  0  0  0  0  0              0 V3000
M  V30 BEGIN CTAB
M  V30 COUNTS 14 14 0 0 0
M  V30 BEGIN ATOM
M  V30 1 O 3.4641 -0.5 0.0 0
M  V30 2 C 4.3301 0.0 0.0 0
M  V30 3 C 2.598 0.0 0.0 0
M  V30 4 C 5.1961 -0.4999 0.0 0
M  V30 5 C 4.3301 0.9999 0.0 0
M  V30 6 C 1.732 -0.5 0.0 0 CFG=1
M  V30 7 O 5.1961 -1.5 0.0 0
M  V30 8 C 6.0621 0.0 0.0 0
M  V30 9 C 5.1961 1.4999 0.0 0
M  V30 10 O 1.732 -1.5 0.0 0
M  V30 11 C 0.866 0.0 0.0 0
M  V30 12 C 6.0621 -2.0 0.0 0
M  V30 13 C 6.0621 1.0 0.0 0
M  V30 14 O 0.0 -0.5 0.0 0
M  V30 END ATOM
M  V30 BEGIN BOND
M  V30 1 1 1 2
M  V30 2 1 1 3
M  V30 3 2 2 4
M  V30 4 1 2 5
M  V30 5 1 6 3
M  V30 6 1 4 7
M  V30 7 1 4 8
M  V30 8 2 5 9
M  V30 9 1 6 10 CFG=1
M  V30 10 1 6 11
M  V30 11 1 7 12
M  V30 12 2 8 13
M  V30 13 1 11 14
M  V30 14 1 9 13
M  V30 END BOND
M  V30 BEGIN COLLECTION
M  V30 MDLV30/STERAC1 ATOMS=(1 6)
M  V30 END COLLECTION
M  V30 END CTAB
M  END
>  <Molecule Name>


>  <status>
-

>  <cas>
93-14-1

>  <name>
GUAIFENESIN

>  <ID>
848

>  <Smiles>
COc(cccc1)c1OCC(CO)O

$$$$

Actelion Java MolfileCreator 2.0

  0  0  0  0  0  0              0 V3000
M  V30 BEGIN CTAB
M  V30 COUNTS 22 25 0 0 0
M  V30 BEGIN ATOM
M  V30 1 S 3.2234 -1.0862 0.0 0
M  V30 2 C 2.6478 -0.2685 0.0 0
M  V30 3 C 2.6236 -1.8864 0.0 0
M  V30 4 C 3.0131 0.6623 0.0 0
M  V30 5 C 1.6922 -0.5633 0.0 0
M  V30 6 C 1.6773 -1.5632 0.0 0
M  V30 7 O 4.0103 0.737 0.0 0
M  V30 8 C 2.5131 1.5283 0.0 0
M  V30 9 C 0.866 0.0 0.0 0
M  V30 10 C 1.5243 1.6773 0.0 0
M  V30 11 C 0.7912 0.9972 0.0 0
M  V30 12 C 0.0 -0.5 0.0 0
M  V30 13 C 1.3018 2.6523 0.0 0
M  V30 14 C -0.1642 1.2919 0.0 0
M  V30 15 C -0.866 0.0 0.0 0
M  V30 16 C 0.0 -1.4999 0.0 0
M  V30 17 C 0.3462 2.947 0.0 0
M  V30 18 C -0.3867 2.2668 0.0 0
M  V30 19 C -1.732 -0.4999 0.0 0
M  V30 20 C -0.866 -1.9999 0.0 0
M  V30 21 N -1.732 -1.4999 0.0 0
M  V30 22 C -2.598 -1.9999 0.0 0
M  V30 END ATOM
M  V30 BEGIN BOND
M  V30 1 1 1 2
M  V30 2 1 1 3
M  V30 3 1 2 4
M  V30 4 2 2 5
M  V30 5 2 3 6
M  V30 6 2 4 7
M  V30 7 1 4 8
M  V30 8 1 5 9
M  V30 9 1 8 10
M  V30 10 1 9 11
M  V30 11 2 9 12
M  V30 12 1 10 13
M  V30 13 1 11 14
M  V30 14 1 12 15
M  V30 15 1 12 16
M  V30 16 2 13 17
M  V30 17 2 14 18
M  V30 18 1 15 19
M  V30 19 1 16 20
M  V30 20 1 19 21
M  V30 21 1 21 22
M  V30 22 1 5 6
M  V30 23 2 10 11
M  V30 24 1 17 18
M  V30 25 1 20 21
M  V30 END BOND
M  V30 END CTAB
M  END
>  <Molecule Name>


>  <status>
-

>  <cas>
34580-13-7

>  <name>
KETOTIFEN

>  <ID>
849

>  <Smiles>
CN(CC1)CCC1=C(c1c(C(C2)=O)scc1)c1c2cccc1

$$$$

Actelion Java MolfileCreator 2.0

  0  0  0  0  0  0              0 V3000
M  V30 BEGIN CTAB
M  V30 COUNTS 25 27 0 0 0
M  V30 BEGIN ATOM
M  V30 1 S 5.2531 -3.5877 0.0 0
M  V30 2 C 5.5621 -4.5388 0.0 0
M  V30 3 C 6.0621 -3.0 0.0 0 CFG=2
M  V30 4 O 4.9743 -5.3478 0.0 0
M  V30 5 N 6.5621 -4.5388 0.0 0
M  V30 6 C 6.8711 -3.5877 0.0 0
M  V30 7 C 6.0621 -1.9999 0.0 0
M  V30 8 O 7.8222 -3.2787 0.0 0
M  V30 9 C 5.1961 -1.4999 0.0 0
M  V30 10 C 5.1961 -0.5 0.0 0
M  V30 11 C 4.3301 -1.9999 0.0 0
M  V30 12 C 4.3301 0.0 0.0 0
M  V30 13 C 3.4641 -1.5 0.0 0
M  V30 14 C 3.4641 -0.5 0.0 0
M  V30 15 O 2.598 0.0 0.0 0
M  V30 16 C 1.732 -0.5 0.0 0
M  V30 17 C 0.866 0.0 0.0 0
M  V30 18 C 0.0 -0.5 0.0 0
M  V30 19 N -0.866 0.0 0.0 0
M  V30 20 C 0.0 -1.4999 0.0 0
M  V30 21 C -1.732 -0.4999 0.0 0
M  V30 22 C -0.866 -1.9999 0.0 0
M  V30 23 C -1.732 -1.4999 0.0 0
M  V30 24 C -2.598 -1.9999 0.0 0
M  V30 25 C -2.598 -2.9999 0.0 0
M  V30 END ATOM
M  V30 BEGIN BOND
M  V30 1 1 1 2
M  V30 2 1 3 1
M  V30 3 2 2 4
M  V30 4 1 2 5
M  V30 5 1 3 6
M  V30 6 1 3 7 CFG=1
M  V30 7 2 6 8
M  V30 8 1 7 9
M  V30 9 2 9 10
M  V30 10 1 9 11
M  V30 11 1 10 12
M  V30 12 2 11 13
M  V30 13 2 12 14
M  V30 14 1 14 15
M  V30 15 1 15 16
M  V30 16 1 16 17
M  V30 17 1 17 18
M  V30 18 2 18 19
M  V30 19 1 18 20
M  V30 20 1 19 21
M  V30 21 2 20 22
M  V30 22 2 21 23
M  V30 23 1 23 24
M  V30 24 1 24 25
M  V30 25 1 5 6
M  V30 26 1 13 14
M  V30 27 1 22 23
M  V30 END BOND
M  V30 BEGIN COLLECTION
M  V30 MDLV30/STERAC1 ATOMS=(1 3)
M  V30 END COLLECTION
M  V30 END CTAB
M  END
>  <Molecule Name>


>  <status>
-

>  <cas>
111025-46-8

>  <name>
PIOGLITAZONE

>  <ID>
850

>  <Smiles>
CCc1cnc(CCOc2ccc(CC(C(N3)=O)SC3=O)cc2)cc1

$$$$

Actelion Java MolfileCreator 2.0

  0  0  0  0  0  0              0 V3000
M  V30 BEGIN CTAB
M  V30 COUNTS 17 17 0 0 0
M  V30 BEGIN ATOM
M  V30 1 Cl 8.6602 1.4999 0.0 0
M  V30 2 C 7.7942 0.9999 0.0 0
M  V30 3 C 6.9282 1.4999 0.0 0
M  V30 4 C 7.7942 0.0 0.0 0
M  V30 5 C 6.0621 0.9999 0.0 0
M  V30 6 C 6.9282 -0.5 0.0 0
M  V30 7 C 6.0621 0.0 0.0 0
M  V30 8 N 5.1961 -0.5 0.0 0
M  V30 9 C 4.3301 0.0 0.0 0
M  V30 10 N 3.4641 -0.5 0.0 0
M  V30 11 N 4.3301 1.0 0.0 0
M  V30 12 C 2.598 0.0 0.0 0
M  V30 13 N 1.732 -0.5 0.0 0
M  V30 14 N 2.598 1.0 0.0 0
M  V30 15 C 0.866 0.0 0.0 0
M  V30 16 C 0.866 1.0 0.0 0
M  V30 17 C 0.0 -0.5 0.0 0
M  V30 END ATOM
M  V30 BEGIN BOND
M  V30 1 1 1 2
M  V30 2 2 2 3
M  V30 3 1 2 4
M  V30 4 1 3 5
M  V30 5 2 4 6
M  V30 6 2 5 7
M  V30 7 1 7 8
M  V30 8 1 8 9
M  V30 9 2 9 10
M  V30 10 1 9 11
M  V30 11 1 10 12
M  V30 12 2 12 13
M  V30 13 1 12 14
M  V30 14 1 13 15
M  V30 15 1 15 16
M  V30 16 1 15 17
M  V30 17 1 6 7
M  V30 END BOND
M  V30 END CTAB
M  END
>  <Molecule Name>


>  <status>
-

>  <cas>
500-92-5

>  <name>
PROGUANIL

>  <ID>
851

>  <Smiles>
CC(C)/N=C(\N)/N=C(\N)/Nc(cc1)ccc1Cl

$$$$

Actelion Java MolfileCreator 2.0

  0  0  0  0  0  0              0 V3000
M  V30 BEGIN CTAB
M  V30 COUNTS 17 19 0 0 0
M  V30 BEGIN ATOM
M  V30 1 O 2.598 -2.25 0.0 0
M  V30 2 C 2.598 -0.75 0.0 0
M  V30 3 N 3.8971 0.0 0.0 0
M  V30 4 C 1.299 0.0 0.0 0
M  V30 5 C 3.8971 1.4999 0.0 0
M  V30 6 C 5.1961 -0.75 0.0 0
M  V30 7 C 0.0 -0.75 0.0 0
M  V30 8 C 1.299 1.5 0.0 0
M  V30 9 N 2.598 2.2499 0.0 0
M  V30 10 C 5.1961 2.2499 0.0 0
M  V30 11 C 6.4951 0.0 0.0 0
M  V30 12 N -1.3703 -0.1398 0.0 0
M  V30 13 N -0.1567 -2.2417 0.0 0
M  V30 14 C 6.4951 1.4999 0.0 0
M  V30 15 C 5.1961 3.7499 0.0 0
M  V30 16 N -2.374 -1.2546 0.0 0
M  V30 17 N -1.624 -2.5536 0.0 0
M  V30 END ATOM
M  V30 BEGIN BOND
M  V30 1 2 1 2
M  V30 2 1 2 3
M  V30 3 1 2 4
M  V30 4 1 3 5
M  V30 5 1 3 6
M  V30 6 1 4 7
M  V30 7 2 4 8
M  V30 8 2 5 9
M  V30 9 1 5 10
M  V30 10 2 6 11
M  V30 11 1 7 12
M  V30 12 2 7 13
M  V30 13 2 10 14
M  V30 14 1 10 15
M  V30 15 2 12 16
M  V30 16 1 13 17
M  V30 17 1 8 9
M  V30 18 1 11 14
M  V30 19 1 16 17
M  V30 END BOND
M  V30 END CTAB
M  END
>  <Molecule Name>


>  <status>
DISCONTINUED

>  <cas>
69372-19-6

>  <name>
PEMIROLAST

>  <ID>
852

>  <Smiles>
CC(C1=NC=C2c3n[nH]nn3)=CC=CN1C2=O

$$$$

Actelion Java MolfileCreator 2.0

  0  0  0  0  0  0              0 V3000
M  V30 BEGIN CTAB
M  V30 COUNTS 65 68 0 0 0
M  V30 BEGIN ATOM
M  V30 1 O 6.806 -3.3085 0.0 0
M  V30 2 C 6.7699 -2.3092 0.0 0
M  V30 3 N 5.7726 -2.237 0.0 0
M  V30 4 C 7.7595 -2.1653 0.0 0
M  V30 5 C 4.814 -1.9522 0.0 0 CFG=1
M  V30 6 C 6.0051 -3.2096 0.0 0
M  V30 7 O 7.975 -3.1418 0.0 0
M  V30 8 C 8.8769 -1.8319 0.0 0 CFG=2
M  V30 9 C 3.9391 -1.4679 0.0 0
M  V30 10 C 4.088 -2.6399 0.0 0
M  V30 11 C 5.2791 -3.8973 0.0 0
M  V30 12 O 9.2302 -0.8964 0.0 0
M  V30 13 O 8.5839 -2.788 0.0 0
M  V30 14 C 9.5104 -2.6056 0.0 0 CFG=2
M  V30 15 O 3.363 -2.2853 0.0 0
M  V30 16 O 3.1887 -0.8068 0.0 0
M  V30 17 C 4.3206 -3.6124 0.0 0
M  V30 18 C 10.2171 -0.7346 0.0 0 CFG=1
M  V30 19 C 10.4973 -2.4438 0.0 0
M  V30 20 C 9.1571 -3.5411 0.0 0
M  V30 21 C 2.598 0.0 0.0 0 CFG=1
M  V30 22 C 10.7644 0.295 0.0 0
M  V30 23 C 10.8506 -1.5083 0.0 0
M  V30 24 C 1.732 -0.5 0.0 0 CFG=2
M  V30 25 C 2.1946 0.915 0.0 0
M  V30 26 C 11.1007 1.2367 0.0 0 CFG=1
M  V30 27 C 0.866 0.0 0.0 0
M  V30 28 C 1.732 -1.5 0.0 0
M  V30 29 C 1.9973 1.8953 0.0 0
M  V30 30 O 12.0733 1.0041 0.0 0
M  V30 31 C 11.2268 2.2287 0.0 0
M  V30 32 C 0.0 -0.5 0.0 0 CFG=2
M  V30 33 O 1.0014 1.8051 0.0 0
M  V30 34 C 2.0153 2.8951 0.0 0 CFG=2
M  V30 35 C 12.3582 0.0456 0.0 0
M  V30 36 C 10.9246 3.182 0.0 0
M  V30 37 C 12.2227 2.3189 0.0 0
M  V30 38 C -0.866 0.0 0.0 0
M  V30 39 C 0.0 -1.4999 0.0 0
M  V30 40 C 2.4515 3.795 0.0 0
M  V30 41 C 1.0428 3.1277 0.0 0
M  V30 42 C 10.8345 4.1779 0.0 0
M  V30 43 C -1.732 -0.4999 0.0 0 CFG=2
M  V30 44 C -0.866 -1.9999 0.0 0
M  V30 45 C 2.6841 4.7676 0.0 0
M  V30 46 C 10.16 4.9162 0.0 0
M  V30 47 O -2.598 0.0 0.0 0
M  V30 48 C -1.732 -1.4999 0.0 0 CFG=2
M  V30 49 C 3.3036 5.5526 0.0 0 CFG=2
M  V30 50 C 1.7843 5.2038 0.0 0
M  V30 51 C 9.66 5.7822 0.0 0
M  V30 52 C -3.4641 -0.4999 0.0 0
M  V30 53 O -2.598 -1.9999 0.0 0
M  V30 54 O 2.5901 6.2533 0.0 0
M  V30 55 C 4.0773 6.1861 0.0 0 CFG=2
M  V30 56 C 8.7379 6.1691 0.0 0
M  V30 57 O 3.5311 7.0238 0.0 0
M  V30 58 C 4.9691 6.6385 0.0 0
M  V30 59 C 7.9204 6.7451 0.0 0 CFG=1
M  V30 60 C 2.5326 6.9697 0.0 0
M  V30 61 O 4.6158 7.574 0.0 0
M  V30 62 C 5.9373 6.8886 0.0 0 CFG=2
M  V30 63 C 6.9367 6.9247 0.0 0
M  V30 64 C 8.3073 7.6673 0.0 0
M  V30 65 C 5.7934 7.8782 0.0 0
M  V30 END ATOM
M  V30 BEGIN BOND
M  V30 1 2 1 2
M  V30 2 1 2 3
M  V30 3 1 2 4
M  V30 4 1 5 3 CFG=3
M  V30 5 1 3 6
M  V30 6 2 4 7
M  V30 7 1 8 4
M  V30 8 1 5 9
M  V30 9 1 5 10
M  V30 10 1 6 11
M  V30 11 1 8 12
M  V30 12 1 8 13 CFG=3
M  V30 13 1 14 8
M  V30 14 2 9 15
M  V30 15 1 9 16
M  V30 16 1 10 17
M  V30 17 1 18 12 CFG=1
M  V30 18 1 14 19
M  V30 19 1 14 20 CFG=3
M  V30 20 1 21 16 CFG=1
M  V30 21 1 18 22
M  V30 22 1 18 23
M  V30 23 1 24 21
M  V30 24 1 21 25
M  V30 25 1 26 22
M  V30 26 1 24 27
M  V30 27 1 24 28 CFG=1
M  V30 28 1 25 29
M  V30 29 1 26 30 CFG=3
M  V30 30 1 26 31
M  V30 31 1 32 27 CFG=1
M  V30 32 2 29 33
M  V30 33 1 34 29
M  V30 34 1 30 35
M  V30 35 2 31 36
M  V30 36 1 31 37
M  V30 37 1 32 38
M  V30 38 1 32 39
M  V30 39 1 34 40
M  V30 40 1 34 41 CFG=1
M  V30 41 1 36 42
M  V30 42 1 43 38
M  V30 43 1 39 44
M  V30 44 2 40 45
M  V30 45 2 42 46
M  V30 46 1 43 47 CFG=1
M  V30 47 1 48 43
M  V30 48 1 49 45
M  V30 49 1 45 50
M  V30 50 1 46 51
M  V30 51 1 47 52
M  V30 52 1 48 53 CFG=3
M  V30 53 1 49 54 CFG=3
M  V30 54 1 55 49
M  V30 55 2 51 56
M  V30 56 1 55 57 CFG=3
M  V30 57 1 55 58
M  V30 58 1 59 56
M  V30 59 1 57 60
M  V30 60 2 58 61
M  V30 61 1 62 58
M  V30 62 1 59 63
M  V30 63 1 59 64 CFG=1
M  V30 64 1 62 65 CFG=1
M  V30 65 1 11 17
M  V30 66 1 19 23
M  V30 67 1 44 48
M  V30 68 1 62 63
M  V30 END BOND
M  V30 BEGIN COLLECTION
M  V30 MDLV30/STERAC1 ATOMS=(15 5 8 14 18 21 24 26 32 34 43 48 49 55 59 62)
M  V30 END COLLECTION
M  V30 END CTAB
M  END
>  <Molecule Name>


>  <status>
-

>  <cas>
53123-88-9

>  <name>
SIROLIMUS

>  <ID>
853

>  <Smiles>
C[C@@H](C[C@@H](CC[C@@H]1O)C[C@@H]1OC)[C@@H](CC([C@@H](C)/C=C(\C)/[C@@H]([C@@H](C([C@@H](C)C[C@@H](C)/C=C/C=C/C=C(\C)/[C@@H](C[C@@H](CC[C@@H]1C)O[C@@]1(C(C(N1[C@@H]2CCCC1)=O)=O)O)OC)=O)OC)O)=O)OC2=O

$$$$
_c001
Actelion Java MolfileCreator 2.0

  0  0  0  0  0  0              0 V3000
M  V30 BEGIN CTAB
M  V30 COUNTS 29 33 0 0 0
M  V30 BEGIN ATOM
M  V30 1 F 6.4951 0.0 0.0 0
M  V30 2 C 5.1961 -0.75 0.0 0
M  V30 3 C 3.8971 0.0 0.0 0
M  V30 4 C 5.1961 -2.25 0.0 0
M  V30 5 N 3.8971 1.5 0.0 0
M  V30 6 C 2.598 -0.75 0.0 0
M  V30 7 C 3.8971 -3.0 0.0 0
M  V30 8 C 5.1106 2.3816 0.0 0
M  V30 9 C 2.6835 2.3816 0.0 0
M  V30 10 O 1.299 0.0 0.0 0
M  V30 11 C 2.598 -2.25 0.0 0
M  V30 12 C 3.8971 -4.5 0.0 0
M  V30 13 C 4.6471 3.8082 0.0 0 CFG=1
M  V30 14 C 3.1471 3.8082 0.0 0 CFG=2
M  V30 15 C 1.299 1.5 0.0 0
M  V30 16 N 1.299 -3.0 0.0 0
M  V30 17 O 5.1961 -5.25 0.0 0
M  V30 18 C 2.598 -5.25 0.0 0
M  V30 19 N 5.3971 5.1073 0.0 0
M  V30 20 C 2.3971 5.1073 0.0 0
M  V30 21 C 1.299 -4.5 0.0 0
M  V30 22 C 0.0 -2.25 0.0 0
M  V30 23 C 2.598 -6.75 0.0 0
M  V30 24 C 4.6471 6.4063 0.0 0
M  V30 25 C 3.1471 6.4063 0.0 0
M  V30 26 C -0.75 -0.9509 0.0 0
M  V30 27 C -1.5 -2.25 0.0 0
M  V30 28 O 1.299 -7.5 0.0 0
M  V30 29 O 3.8971 -7.5 0.0 0 CHG=-1
M  V30 END ATOM
M  V30 BEGIN BOND
M  V30 1 1 1 2
M  V30 2 2 2 3
M  V30 3 1 2 4
M  V30 4 1 3 5
M  V30 5 1 3 6
M  V30 6 2 4 7
M  V30 7 1 5 8
M  V30 8 1 5 9
M  V30 9 1 6 10
M  V30 10 2 6 11
M  V30 11 1 7 12
M  V30 12 1 13 8
M  V30 13 1 14 9 CFG=1
M  V30 14 1 10 15
M  V30 15 1 11 16
M  V30 16 2 12 17
M  V30 17 1 12 18
M  V30 18 1 13 19 CFG=1
M  V30 19 1 14 20
M  V30 20 1 16 21
M  V30 21 1 16 22
M  V30 22 1 18 23
M  V30 23 1 19 24
M  V30 24 1 20 25
M  V30 25 1 22 26
M  V30 26 1 22 27
M  V30 27 2 23 28
M  V30 28 1 23 29
M  V30 29 1 7 11
M  V30 30 1 13 14
M  V30 31 2 18 21
M  V30 32 1 24 25
M  V30 33 1 26 27
M  V30 END BOND
M  V30 BEGIN COLLECTION
M  V30 MDLV30/STERAC1 ATOMS=(2 13 14)
M  V30 END COLLECTION
M  V30 END CTAB
M  END
>  <Molecule Name>
_c001

>  <status>
-

>  <cas>
151096-09-2

>  <name>
MOXIFLOXACIN

>  <ID>
854

>  <Smiles>
COc(c(N1C[C@@H]2NCCC[C@@H]2C1)c(cc12)F)c2N(C2CC2)C=C(C([O-])=O)C1=O

$$$$

Actelion Java MolfileCreator 2.0

  0  0  0  0  0  0              0 V3000
M  V30 BEGIN CTAB
M  V30 COUNTS 27 33 0 0 0
M  V30 BEGIN ATOM
M  V30 1 O 2.247 8.9796 0.0 0
M  V30 2 C 2.0897 7.483 0.0 0
M  V30 3 C 3.3071 6.5984 0.0 0
M  V30 4 C 0.7149 6.8709 0.0 0
M  V30 5 C 3.1498 5.1018 0.0 0
M  V30 6 C 0.5576 5.3743 0.0 0
M  V30 7 C 1.7751 4.4898 0.0 0 CFG=1
M  V30 8 C 4.3673 4.2173 0.0 0 CFG=2
M  V30 9 C 1.6178 2.9932 0.0 0 CFG=1
M  V30 10 C 0.4003 3.8777 0.0 0
M  V30 11 C 4.21 2.7207 0.0 0 CFG=1
M  V30 12 C 5.5847 3.3328 0.0 0
M  V30 13 C 2.8352 2.1086 0.0 0 CFG=2
M  V30 14 C 0.243 2.3811 0.0 0
M  V30 15 C 2.6779 0.612 0.0 0 CFG=2
M  V30 16 C 0.0857 0.8845 0.0 0
M  V30 17 C 1.3032 0.0 0.0 0 CFG=1
M  V30 18 C 3.6849 -0.5062 0.0 0 CFG=2
M  V30 19 C 1.4605 -1.4966 0.0 0 CFG=1
M  V30 20 C 0.0042 -0.5919 0.0 0
M  V30 21 C 2.9324 -1.8094 0.0 0 CFG=2
M  V30 22 C 4.4373 -1.8094 0.0 0
M  V30 23 O -0.0135 -1.2639 0.0 0
M  V30 24 C 1.6178 -2.9932 0.0 0
M  V30 25 C -0.7638 -2.4869 0.0 0
M  V30 26 C 0.243 -3.6052 0.0 0
M  V30 27 O -2.2604 -2.6442 0.0 0
M  V30 END ATOM
M  V30 BEGIN BOND
M  V30 1 2 1 2
M  V30 2 1 2 3
M  V30 3 1 2 4
M  V30 4 2 3 5
M  V30 5 1 4 6
M  V30 6 1 7 5
M  V30 7 1 8 5
M  V30 8 1 9 7
M  V30 9 1 7 10 CFG=1
M  V30 10 1 11 8
M  V30 11 1 8 12 CFG=1
M  V30 12 1 13 9 CFG=3
M  V30 13 1 9 14 CFG=1
M  V30 14 1 15 13 CFG=1
M  V30 15 1 14 16
M  V30 16 1 17 15
M  V30 17 1 18 15
M  V30 18 1 19 17
M  V30 19 1 17 20 CFG=1
M  V30 20 1 21 18
M  V30 21 1 18 22 CFG=1
M  V30 22 1 19 23
M  V30 23 1 19 24 CFG=3
M  V30 24 1 23 25
M  V30 25 1 24 26
M  V30 26 2 25 27
M  V30 27 1 6 7
M  V30 28 1 11 12 CFG=1
M  V30 29 1 11 13
M  V30 30 1 16 17
M  V30 31 1 19 21
M  V30 32 1 21 22 CFG=1
M  V30 33 1 25 26
M  V30 END BOND
M  V30 BEGIN COLLECTION
M  V30 MDLV30/STERAC1 ATOMS=(10 7 8 9 11 13 15 17 18 19 21)
M  V30 END COLLECTION
M  V30 END CTAB
M  END
>  <Molecule Name>


>  <status>
-

>  <cas>
67392-87-4

>  <name>
DROSPIRENONE

>  <ID>
855

>  <Smiles>
C[C@@](CC1)([C@H]([C@@H]2[C@H]3C2)[C@@H]([C@H]2[C@@H]4C2)[C@@H]1[C@](C)(CC1)C4=CC1=O)[C@]3(CC1)OC1=O

$$$$

Actelion Java MolfileCreator 2.0

  0  0  0  0  0  0              0 V3000
M  V30 BEGIN CTAB
M  V30 COUNTS 22 25 0 0 0
M  V30 BEGIN ATOM
M  V30 1 O 0.866 -2.0 0.0 0
M  V30 2 C 1.732 -1.5 0.0 0
M  V30 3 N 1.732 -0.5 0.0 0
M  V30 4 C 2.598 -1.9999 0.0 0
M  V30 5 C 2.598 0.0 0.0 0
M  V30 6 C 0.866 0.0 0.0 0
M  V30 7 C 2.8059 -2.9781 0.0 0
M  V30 8 C 3.4641 -1.4999 0.0 0
M  V30 9 C 3.4641 -0.4999 0.0 0
M  V30 10 C 0.0 -0.5 0.0 0
M  V30 11 C 3.8005 -3.0826 0.0 0
M  V30 12 C 2.2182 -3.7871 0.0 0
M  V30 13 N 4.2072 -2.1691 0.0 0
M  V30 14 N -0.1045 -1.4945 0.0 0
M  V30 15 C -0.9135 -0.0932 0.0 0
M  V30 16 C 4.2072 -3.9962 0.0 0
M  V30 17 C 2.6249 -4.7007 0.0 0
M  V30 18 C 5.1853 -1.9612 0.0 0
M  V30 19 C -1.0826 -1.7024 0.0 0
M  V30 20 N -1.5826 -0.8364 0.0 0
M  V30 21 C -1.1214 0.8848 0.0 0
M  V30 22 C 3.6194 -4.8052 0.0 0
M  V30 END ATOM
M  V30 BEGIN BOND
M  V30 1 2 1 2
M  V30 2 1 2 3
M  V30 3 1 2 4
M  V30 4 1 3 5
M  V30 5 1 3 6
M  V30 6 1 4 7
M  V30 7 2 4 8
M  V30 8 1 5 9
M  V30 9 1 6 10
M  V30 10 2 7 11
M  V30 11 1 7 12
M  V30 12 1 8 13
M  V30 13 1 10 14
M  V30 14 2 10 15
M  V30 15 1 11 16
M  V30 16 2 12 17
M  V30 17 1 13 18
M  V30 18 2 14 19
M  V30 19 1 15 20
M  V30 20 1 15 21
M  V30 21 2 16 22
M  V30 22 1 8 9
M  V30 23 1 11 13
M  V30 24 1 17 22
M  V30 25 1 19 20
M  V30 END BOND
M  V30 END CTAB
M  END
>  <Molecule Name>


>  <status>
-

>  <cas>
122852-42-0

>  <name>
ALOSETRON

>  <ID>
856

>  <Smiles>
Cc1c(CN(CCc2c3c(cccc4)c4n2C)C3=O)nc[nH]1

$$$$
_c001
Actelion Java MolfileCreator 2.0

  0  0  0  0  0  0              0 V3000
M  V30 BEGIN CTAB
M  V30 COUNTS 8 8 0 0 0
M  V30 BEGIN ATOM
M  V30 1 O 1.299 0.0 0.0 0
M  V30 2 C 0.0 -0.75 0.0 0
M  V30 3 C -1.299 0.0 0.0 0
M  V30 4 C 0.0 -2.25 0.0 0
M  V30 5 C -2.598 -0.7499 0.0 0
M  V30 6 C -1.299 -2.9999 0.0 0
M  V30 7 C -2.598 -2.2499 0.0 0
M  V30 8 O -3.8971 -2.9999 0.0 0
M  V30 END ATOM
M  V30 BEGIN BOND
M  V30 1 1 1 2
M  V30 2 2 2 3
M  V30 3 1 2 4
M  V30 4 1 3 5
M  V30 5 2 4 6
M  V30 6 2 5 7
M  V30 7 1 7 8
M  V30 8 1 6 7
M  V30 END BOND
M  V30 END CTAB
M  END
>  <Molecule Name>
_c001

>  <status>
-

>  <cas>
123-31-9

>  <name>
HYDROQUINONE

>  <ID>
857

>  <Smiles>
Oc(cc1)ccc1O

$$$$

Actelion Java MolfileCreator 2.0

  0  0  0  0  0  0              0 V3000
M  V30 BEGIN CTAB
M  V30 COUNTS 24 25 0 0 0
M  V30 BEGIN ATOM
M  V30 1 I 4.3301 -2.9999 0.0 0
M  V30 2 C 4.3301 -1.9999 0.0 0
M  V30 3 C 5.1961 -1.5 0.0 0
M  V30 4 C 3.4641 -1.5 0.0 0
M  V30 5 O 6.0621 -2.0 0.0 0
M  V30 6 C 5.1961 -0.5 0.0 0
M  V30 7 C 3.4641 -0.5 0.0 0
M  V30 8 C 6.9282 -1.5 0.0 0
M  V30 9 I 6.0621 0.0 0.0 0
M  V30 10 C 4.3301 0.0 0.0 0
M  V30 11 C 2.598 0.0 0.0 0
M  V30 12 C 7.7942 -2.0 0.0 0
M  V30 13 C 6.9282 -0.5 0.0 0
M  V30 14 C 1.732 -0.5 0.0 0 CFG=2
M  V30 15 C 8.6602 -1.5 0.0 0
M  V30 16 C 7.7942 0.0 0.0 0
M  V30 17 N 1.732 -1.5 0.0 0
M  V30 18 C 0.866 0.0 0.0 0
M  V30 19 I 9.5262 -2.0 0.0 0
M  V30 20 C 8.6602 -0.5 0.0 0
M  V30 21 I 7.7942 0.9999 0.0 0
M  V30 22 O 0.866 1.0 0.0 0
M  V30 23 O 0.0 -0.5 0.0 0 CHG=-1
M  V30 24 O 9.5262 0.0 0.0 0
M  V30 END ATOM
M  V30 BEGIN BOND
M  V30 1 1 1 2
M  V30 2 2 2 3
M  V30 3 1 2 4
M  V30 4 1 3 5
M  V30 5 1 3 6
M  V30 6 2 4 7
M  V30 7 1 5 8
M  V30 8 1 6 9
M  V30 9 2 6 10
M  V30 10 1 7 11
M  V30 11 2 8 12
M  V30 12 1 8 13
M  V30 13 1 14 11
M  V30 14 1 12 15
M  V30 15 2 13 16
M  V30 16 1 14 17 CFG=3
M  V30 17 1 14 18
M  V30 18 1 15 19
M  V30 19 2 15 20
M  V30 20 1 16 21
M  V30 21 2 18 22
M  V30 22 1 18 23
M  V30 23 1 20 24
M  V30 24 1 7 10
M  V30 25 1 16 20
M  V30 END BOND
M  V30 BEGIN COLLECTION
M  V30 MDLV30/STERAC1 ATOMS=(1 14)
M  V30 END COLLECTION
M  V30 END CTAB
M  END
>  <Molecule Name>


>  <status>
-

>  <cas>
51-48-9

>  <name>
LEVOTHYROXINE

>  <ID>
858

>  <Smiles>
NC(Cc(cc1I)cc(I)c1Oc(cc1I)cc(I)c1O)C([O-])=O

$$$$

Actelion Java MolfileCreator 2.0

  0  0  0  0  0  0              0 V3000
M  V30 BEGIN CTAB
M  V30 COUNTS 28 30 0 0 0
M  V30 BEGIN ATOM
M  V30 1 O 6.0621 0.0 0.0 0
M  V30 2 C 5.1961 -0.5 0.0 0
M  V30 3 N 4.3301 0.0 0.0 0
M  V30 4 C 5.1961 -1.4999 0.0 0 CFG=1
M  V30 5 C 3.4641 -0.5 0.0 0
M  V30 6 O 4.3871 -2.0877 0.0 0
M  V30 7 C 6.0051 -2.0877 0.0 0
M  V30 8 C 2.598 0.0 0.0 0
M  V30 9 C 4.6961 -3.0388 0.0 0
M  V30 10 C 5.6961 -3.0388 0.0 0
M  V30 11 C 1.732 -0.5 0.0 0
M  V30 12 N 0.866 0.0 0.0 0
M  V30 13 C 0.866 1.0 0.0 0
M  V30 14 C 0.0 -0.5 0.0 0
M  V30 15 N 1.732 1.5 0.0 0
M  V30 16 N 0.0 1.4999 0.0 0
M  V30 17 C 1.732 2.5 0.0 0
M  V30 18 C 0.0 2.4999 0.0 0
M  V30 19 N 2.598 3.0 0.0 0
M  V30 20 C 0.866 3.0 0.0 0
M  V30 21 C -0.866 2.9999 0.0 0
M  V30 22 C 0.866 4.0 0.0 0
M  V30 23 C -0.866 3.9999 0.0 0
M  V30 24 C 0.0 4.4999 0.0 0
M  V30 25 O -1.732 4.4999 0.0 0
M  V30 26 O 0.0 5.5 0.0 0
M  V30 27 C -2.598 3.9999 0.0 0
M  V30 28 C -0.866 5.9999 0.0 0
M  V30 END ATOM
M  V30 BEGIN BOND
M  V30 1 2 1 2
M  V30 2 1 2 3
M  V30 3 1 4 2 CFG=3
M  V30 4 1 3 5
M  V30 5 1 4 6
M  V30 6 1 4 7
M  V30 7 1 5 8
M  V30 8 1 6 9
M  V30 9 1 7 10
M  V30 10 1 8 11
M  V30 11 1 11 12
M  V30 12 1 12 13
M  V30 13 1 12 14
M  V30 14 1 13 15
M  V30 15 2 13 16
M  V30 16 2 15 17
M  V30 17 1 16 18
M  V30 18 1 17 19
M  V30 19 1 17 20
M  V30 20 2 18 21
M  V30 21 2 20 22
M  V30 22 1 21 23
M  V30 23 1 22 24
M  V30 24 1 23 25
M  V30 25 1 24 26
M  V30 26 1 25 27
M  V30 27 1 26 28
M  V30 28 1 9 10
M  V30 29 1 18 20
M  V30 30 2 23 24
M  V30 END BOND
M  V30 BEGIN COLLECTION
M  V30 MDLV30/STERAC1 ATOMS=(1 4)
M  V30 END COLLECTION
M  V30 END CTAB
M  END
>  <Molecule Name>


>  <status>
-

>  <cas>
81403-80-7

>  <name>
ALFUZOSIN

>  <ID>
859

>  <Smiles>
CN(CCCNC(C1OCCC1)=O)c(nc(c1c2)N)nc1cc(OC)c2OC

$$$$

Actelion Java MolfileCreator 2.0

  0  0  0  0  0  0              0 V3000
M  V30 BEGIN CTAB
M  V30 COUNTS 24 26 0 0 0
M  V30 BEGIN ATOM
M  V30 1 F 6.277 -7.7213 0.0 0
M  V30 2 C 7.1586 -6.5078 0.0 0
M  V30 3 C 8.6504 -6.6646 0.0 0
M  V30 4 C 6.5485 -5.1374 0.0 0
M  V30 5 N 9.2605 -8.0349 0.0 0
M  V30 6 C 9.5321 -5.451 0.0 0
M  V30 7 C 7.4302 -3.9239 0.0 0
M  V30 8 C 8.3789 -9.2484 0.0 0
M  V30 9 C 10.7523 -8.1917 0.0 0
M  V30 10 C 8.922 -4.0807 0.0 0
M  V30 11 N 6.8201 -2.5536 0.0 0
M  V30 12 C 8.989 -10.6187 0.0 0
M  V30 13 C 11.3624 -9.562 0.0 0
M  V30 14 C 7.5701 -1.2546 0.0 0
M  V30 15 C 5.3529 -2.2417 0.0 0
M  V30 16 O 10.4807 -10.7755 0.0 0
M  V30 17 O 9.0619 -1.0978 0.0 0
M  V30 18 O 6.5664 -0.1398 0.0 0
M  V30 19 C 5.1961 -0.75 0.0 0 CFG=1
M  V30 20 C 3.8971 0.0 0.0 0
M  V30 21 N 2.598 -0.75 0.0 0
M  V30 22 C 1.299 0.0 0.0 0
M  V30 23 O 1.299 1.5 0.0 0
M  V30 24 C 0.0 -0.75 0.0 0
M  V30 END ATOM
M  V30 BEGIN BOND
M  V30 1 1 1 2
M  V30 2 2 2 3
M  V30 3 1 2 4
M  V30 4 1 3 5
M  V30 5 1 3 6
M  V30 6 2 4 7
M  V30 7 1 5 8
M  V30 8 1 5 9
M  V30 9 2 6 10
M  V30 10 1 7 11
M  V30 11 1 8 12
M  V30 12 1 9 13
M  V30 13 1 11 14
M  V30 14 1 11 15
M  V30 15 1 12 16
M  V30 16 2 14 17
M  V30 17 1 14 18
M  V30 18 1 19 15
M  V30 19 1 19 20 CFG=3
M  V30 20 1 20 21
M  V30 21 1 21 22
M  V30 22 2 22 23
M  V30 23 1 22 24
M  V30 24 1 7 10
M  V30 25 1 13 16
M  V30 26 1 18 19
M  V30 END BOND
M  V30 BEGIN COLLECTION
M  V30 MDLV30/STERAC1 ATOMS=(1 19)
M  V30 END COLLECTION
M  V30 END CTAB
M  END
>  <Molecule Name>


>  <status>
-

>  <cas>
165800-03-3

>  <name>
LINEZOLID

>  <ID>
860

>  <Smiles>
CC(NCC(CN1c(cc2)cc(F)c2N2CCOCC2)OC1=O)=O

$$$$

Actelion Java MolfileCreator 2.0

  0  0  0  0  0  0              0 V3000
M  V30 BEGIN CTAB
M  V30 COUNTS 25 26 0 0 0
M  V30 BEGIN ATOM
M  V30 1 O 11.0241 0.8716 0.0 0
M  V30 2 C 10.355 0.1284 0.0 0
M  V30 3 N 10.664 -0.8225 0.0 0
M  V30 4 C 9.3769 0.3364 0.0 0
M  V30 5 C 9.9949 -1.5657 0.0 0
M  V30 6 N 8.8769 1.2024 0.0 0
M  V30 7 C 8.7077 -0.4067 0.0 0
M  V30 8 N 9.0167 -1.3577 0.0 0
M  V30 9 N 10.3039 -2.5167 0.0 0
M  V30 10 C 7.8987 0.9945 0.0 0
M  V30 11 N 7.7942 0.0 0.0 0
M  V30 12 C 6.9282 -0.5 0.0 0
M  V30 13 O 6.0621 0.0 0.0 0
M  V30 14 C 5.1961 -0.5 0.0 0 CFG=1
M  V30 15 C 4.3301 0.0 0.0 0
M  V30 16 C 5.1961 -1.5 0.0 0
M  V30 17 O 3.4641 -0.5 0.0 0
M  V30 18 O 6.0621 -2.0 0.0 0
M  V30 19 C 2.598 0.0 0.0 0
M  V30 20 O 2.598 1.0 0.0 0
M  V30 21 C 1.732 -0.5 0.0 0 CFG=1
M  V30 22 N 1.732 -1.5 0.0 0
M  V30 23 C 0.866 0.0 0.0 0
M  V30 24 C 0.866 1.0 0.0 0
M  V30 25 C 0.0 -0.5 0.0 0
M  V30 END ATOM
M  V30 BEGIN BOND
M  V30 1 2 1 2
M  V30 2 1 2 3
M  V30 3 1 2 4
M  V30 4 2 3 5
M  V30 5 1 4 6
M  V30 6 2 4 7
M  V30 7 1 5 8
M  V30 8 1 5 9
M  V30 9 2 6 10
M  V30 10 1 7 11
M  V30 11 1 11 12
M  V30 12 1 12 13
M  V30 13 1 14 13 CFG=3
M  V30 14 1 14 15
M  V30 15 1 14 16
M  V30 16 1 15 17
M  V30 17 1 16 18
M  V30 18 1 17 19
M  V30 19 2 19 20
M  V30 20 1 21 19
M  V30 21 1 21 22 CFG=1
M  V30 22 1 21 23
M  V30 23 1 23 24
M  V30 24 1 23 25
M  V30 25 1 7 8
M  V30 26 1 10 11
M  V30 END BOND
M  V30 BEGIN COLLECTION
M  V30 MDLV30/STERAC1 ATOMS=(2 14 21)
M  V30 END COLLECTION
M  V30 END CTAB
M  END
>  <Molecule Name>


>  <status>
-

>  <cas>
175865-60-8

>  <name>
VALGANCICLOVIR

>  <ID>
861

>  <Smiles>
CC(C)[C@@H](C(OC[C@@H](CO)OCn1c(NC(N)=NC2=O)c2nc1)=O)N

$$$$
_c001
Actelion Java MolfileCreator 2.0

  0  0  0  0  0  0              0 V3000
M  V30 BEGIN CTAB
M  V30 COUNTS 58 62 0 0 0
M  V30 BEGIN ATOM
M  V30 1 O 11.0883 1.1396 0.0 0
M  V30 2 C 10.7037 2.6121 0.0 0
M  V30 3 O 9.2535 3.0983 0.0 0
M  V30 4 C 12.1056 3.5411 0.0 0 CFG=2
M  V30 5 C 8.5653 2.0054 0.0 0 CFG=2
M  V30 6 C 13.5292 3.3735 0.0 0
M  V30 7 C 11.8365 5.2587 0.0 0
M  V30 8 C 8.9331 0.5082 0.0 0 CFG=2
M  V30 9 C 6.9806 2.296 0.0 0
M  V30 10 O 14.4547 4.6851 0.0 0
M  V30 11 C 13.9106 2.1255 0.0 0 CFG=2
M  V30 12 O 8.0192 1.6726 0.0 0
M  V30 13 C 7.9222 -0.6145 0.0 0 CFG=1
M  V30 14 C 10.2324 0.2555 0.0 0
M  V30 15 C 6.5216 3.6961 0.0 0
M  V30 16 C 12.8997 1.0027 0.0 0 CFG=2
M  V30 17 C 15.3884 1.8114 0.0 0
M  V30 18 C 6.6999 1.5025 0.0 0
M  V30 19 N 6.542 0.0 0.0 0
M  V30 20 C 8.3891 -2.0513 0.0 0 CFG=1
M  V30 21 O 11.6254 1.3337 0.0 0
M  V30 22 C 13.3666 -0.434 0.0 0 CFG=1
M  V30 23 O 5.5772 2.5134 0.0 0
M  V30 24 C 5.2336 -0.7554 0.0 0
M  V30 25 C 9.8669 -2.3655 0.0 0
M  V30 26 C 7.3781 -3.1741 0.0 0
M  V30 27 C 11.1583 2.7281 0.0 0 CFG=1
M  V30 28 O 14.8444 -0.7482 0.0 0
M  V30 29 C 12.3556 -1.5568 0.0 0
M  V30 30 C 13.8334 -1.8709 0.0 0
M  V30 31 C 3.9252 0.0 0.0 0
M  V30 32 O 10.3338 -3.8023 0.0 0
M  V30 33 C 10.8778 -1.2427 0.0 0 CFG=2
M  V30 34 O 9.6564 2.8193 0.0 0
M  V30 35 C 11.8055 3.9799 0.0 0 CFG=1
M  V30 36 C 15.3112 -2.185 0.0 0
M  V30 37 C 2.6168 -0.7554 0.0 0
M  V30 38 C 10.7681 0.0713 0.0 0
M  V30 39 C 9.0103 4.5047 0.0 0 CFG=2
M  V30 40 O 13.3032 3.8728 0.0 0
M  V30 41 C 11.2949 5.3464 0.0 0 CFG=1
M  V30 42 C 1.3084 0.0 0.0 0
M  V30 43 C 10.0213 5.6275 0.0 0
M  V30 44 C 7.5325 4.8188 0.0 0
M  V30 45 N 12.51 6.4361 0.0 0
M  V30 46 N 0.0 -0.7554 0.0 0
M  V30 47 C 12.0432 7.873 0.0 0
M  V30 48 C 13.9878 6.122 0.0 0
M  V30 49 C -1.3802 -0.1409 0.0 0
M  V30 50 C -0.1579 -2.2579 0.0 0
M  V30 51 N -2.3911 -1.2636 0.0 0
M  V30 52 C -1.6357 -2.572 0.0 0
M  V30 53 C -2.2502 -3.9522 0.0 0
M  V30 54 C -3.7527 -4.1102 0.0 0
M  V30 55 C -1.3621 -5.1745 0.0 0
M  V30 56 N -4.3672 -5.4904 0.0 0
M  V30 57 C -1.9767 -6.5547 0.0 0
M  V30 58 C -3.4792 -6.7126 0.0 0
M  V30 END ATOM
M  V30 BEGIN BOND
M  V30 1 2 1 2
M  V30 2 1 2 3
M  V30 3 1 4 2
M  V30 4 1 5 3
M  V30 5 1 4 6
M  V30 6 1 4 7 CFG=1
M  V30 7 1 8 5
M  V30 8 1 5 9 CFG=3
M  V30 9 2 6 10
M  V30 10 1 11 6
M  V30 11 1 8 12
M  V30 12 1 13 8
M  V30 13 1 8 14 CFG=3
M  V30 14 1 9 15
M  V30 15 1 16 11
M  V30 16 1 11 17 CFG=1
M  V30 17 1 12 18
M  V30 18 1 13 19 CFG=3
M  V30 19 1 20 13
M  V30 20 1 16 21 CFG=1
M  V30 21 1 22 16
M  V30 22 2 18 23
M  V30 23 1 19 24
M  V30 24 1 20 25
M  V30 25 1 20 26 CFG=1
M  V30 26 1 27 21 CFG=1
M  V30 27 1 22 28
M  V30 28 1 22 29
M  V30 29 1 22 30 CFG=3
M  V30 30 1 24 31
M  V30 31 2 25 32
M  V30 32 1 33 25
M  V30 33 1 27 34
M  V30 34 1 35 27
M  V30 35 1 28 36
M  V30 36 1 31 37
M  V30 37 1 33 38 CFG=1
M  V30 38 1 39 34
M  V30 39 1 35 40 CFG=3
M  V30 40 1 41 35
M  V30 41 1 37 42
M  V30 42 1 39 43
M  V30 43 1 39 44 CFG=1
M  V30 44 1 41 45 CFG=1
M  V30 45 1 42 46
M  V30 46 1 45 47
M  V30 47 1 45 48
M  V30 48 1 46 49
M  V30 49 1 46 50
M  V30 50 2 49 51
M  V30 51 2 50 52
M  V30 52 1 52 53
M  V30 53 2 53 54
M  V30 54 1 53 55
M  V30 55 1 54 56
M  V30 56 2 55 57
M  V30 57 2 56 58
M  V30 58 1 18 19
M  V30 59 1 29 33
M  V30 60 1 41 43
M  V30 61 1 51 52
M  V30 62 1 57 58
M  V30 END BOND
M  V30 BEGIN COLLECTION
M  V30 MDLV30/STERAC1 ATOMS=(13 4 5 8 11 13 16 20 22 27 33 35 39 41)
M  V30 END COLLECTION
M  V30 END CTAB
M  END
>  <Molecule Name>
_c001

>  <status>
DISCONTINUED

>  <cas>
191114-48-4

>  <name>
TELITHROMYCIN

>  <ID>
862

>  <Smiles>
CC[C@@H]([C@@](C)([C@H]([C@H](C)C([C@@H](C)C[C@@](C)([C@H]([C@H](C)C([C@@H]1C)=O)O[C@H]([C@H]2O)O[C@@H](C)C[C@H]2N(C)C)OC)=O)N2CCCCn3cnc(-c4cnccc4)c3)OC2=O)OC1=O

$$$$
_c001
Actelion Java MolfileCreator 2.0

  0  0  0  0  0  0              0 V3000
M  V30 BEGIN CTAB
M  V30 COUNTS 33 37 0 0 0
M  V30 BEGIN ATOM
M  V30 1 S 2.598 0.0 0.0 0
M  V30 2 C 3.4641 -0.5 0.0 0
M  V30 3 C 1.732 -0.5 0.0 0
M  V30 4 N 3.4641 -1.5 0.0 0
M  V30 5 N 4.3301 0.0 0.0 0
M  V30 6 C 0.866 0.0 0.0 0
M  V30 7 C 4.3301 -1.9999 0.0 0
M  V30 8 C 5.1961 -0.4999 0.0 0
M  V30 9 C 0.0 -0.5 0.0 0
M  V30 10 N 4.3301 -3.0 0.0 0
M  V30 11 C 5.1961 -1.4999 0.0 0
M  V30 12 N 6.1472 -0.1909 0.0 0
M  V30 13 C 5.1961 -3.4999 0.0 0 CFG=2
M  V30 14 N 6.1472 -1.809 0.0 0
M  V30 15 N 6.7349 -0.9999 0.0 0
M  V30 16 C 6.4562 0.76 0.0 0 CFG=2
M  V30 17 C 5.6961 -4.366 0.0 0 CFG=2
M  V30 18 C 6.1961 -3.5 0.0 0
M  V30 19 C 7.4072 1.069 0.0 0 CFG=1
M  V30 20 C 5.8684 1.569 0.0 0
M  V30 21 C 5.6961 -5.366 0.0 0
M  V30 22 O 8.2162 0.4813 0.0 0
M  V30 23 C 7.4072 2.069 0.0 0 CFG=2
M  V30 24 C 6.4562 2.3781 0.0 0 CFG=2
M  V30 25 C 4.8301 -5.866 0.0 0
M  V30 26 C 6.5621 -5.866 0.0 0
M  V30 27 O 8.2162 2.6568 0.0 0
M  V30 28 O 6.1472 3.3291 0.0 0
M  V30 29 C 4.8301 -6.866 0.0 0
M  V30 30 C 6.5621 -6.866 0.0 0
M  V30 31 F 3.9641 -7.366 0.0 0
M  V30 32 C 5.6961 -7.366 0.0 0
M  V30 33 F 5.6961 -8.366 0.0 0
M  V30 END ATOM
M  V30 BEGIN BOND
M  V30 1 1 1 2
M  V30 2 1 1 3
M  V30 3 2 2 4
M  V30 4 1 2 5
M  V30 5 1 3 6
M  V30 6 1 4 7
M  V30 7 2 5 8
M  V30 8 1 6 9
M  V30 9 1 7 10
M  V30 10 2 7 11
M  V30 11 1 8 12
M  V30 12 1 13 10 CFG=1
M  V30 13 1 11 14
M  V30 14 1 12 15
M  V30 15 1 16 12 CFG=1
M  V30 16 1 17 13
M  V30 17 1 13 18
M  V30 18 1 19 16
M  V30 19 1 16 20
M  V30 20 1 17 21 CFG=3
M  V30 21 1 19 22 CFG=3
M  V30 22 1 23 19
M  V30 23 1 24 20
M  V30 24 2 21 25
M  V30 25 1 21 26
M  V30 26 1 23 27 CFG=3
M  V30 27 1 24 28 CFG=1
M  V30 28 1 25 29
M  V30 29 2 26 30
M  V30 30 1 29 31
M  V30 31 2 29 32
M  V30 32 1 32 33
M  V30 33 1 8 11
M  V30 34 2 14 15
M  V30 35 1 17 18
M  V30 36 1 23 24
M  V30 37 1 30 32
M  V30 END BOND
M  V30 BEGIN COLLECTION
M  V30 MDLV30/STERAC1 ATOMS=(6 13 16 17 19 23 24)
M  V30 END COLLECTION
M  V30 END CTAB
M  END
>  <Molecule Name>
_c001

>  <status>
-

>  <cas>
220347-05-7

>  <name>
M TICAGRELOR

>  <ID>
863

>  <Smiles>
CCCSc1nc(N[C@@H](C2)[C@H]2c(cc2)cc(F)c2F)c2nnn([C@@H](C[C@H]([C@@H]3O)O)[C@H]3O)c2n1

$$$$

Actelion Java MolfileCreator 2.0

  0  0  0  0  0  0              0 V3000
M  V30 BEGIN CTAB
M  V30 COUNTS 28 31 0 0 0
M  V30 BEGIN ATOM
M  V30 1 F 2.5051 2.8204 0.0 0
M  V30 2 C 3.4997 2.9249 0.0 0
M  V30 3 C 4.0874 2.1159 0.0 0
M  V30 4 C 3.9064 3.8385 0.0 0
M  V30 5 N 5.082 2.2205 0.0 0
M  V30 6 N 3.6807 1.2024 0.0 0
M  V30 7 C 4.9009 3.943 0.0 0
M  V30 8 C 5.4887 3.134 0.0 0
M  V30 9 C 2.7026 0.9945 0.0 0
M  V30 10 C 4.1807 0.3364 0.0 0
M  V30 11 C 5.3076 4.8566 0.0 0
M  V30 12 N 6.4832 3.2385 0.0 0
M  V30 13 C 2.598 0.0 0.0 0
M  V30 14 C 3.5116 -0.4067 0.0 0 CFG=1
M  V30 15 O 4.7199 5.6656 0.0 0
M  V30 16 C 6.3022 4.9611 0.0 0
M  V30 17 C 6.89 4.1521 0.0 0
M  V30 18 C 7.071 2.4295 0.0 0
M  V30 19 N 1.732 -0.5 0.0 0
M  V30 20 C 3.7195 -1.3848 0.0 0
M  V30 21 C 6.7089 5.8746 0.0 0
M  V30 22 C 7.1755 1.435 0.0 0
M  V30 23 C 7.9846 2.0228 0.0 0
M  V30 24 O 0.866 0.0 0.0 0
M  V30 25 N 4.6705 -1.6939 0.0 0
M  V30 26 O 7.7034 5.9792 0.0 0
M  V30 27 O 6.1211 6.6837 0.0 0 CHG=-1
M  V30 28 C 0.0 -0.5 0.0 0
M  V30 END ATOM
M  V30 BEGIN BOND
M  V30 1 1 1 2
M  V30 2 2 2 3
M  V30 3 1 2 4
M  V30 4 1 3 5
M  V30 5 1 3 6
M  V30 6 2 4 7
M  V30 7 2 5 8
M  V30 8 1 6 9
M  V30 9 1 6 10
M  V30 10 1 7 11
M  V30 11 1 8 12
M  V30 12 1 9 13
M  V30 13 1 14 10
M  V30 14 2 11 15
M  V30 15 1 11 16
M  V30 16 1 12 17
M  V30 17 1 12 18
M  V30 18 2 13 19
M  V30 19 1 14 20 CFG=3
M  V30 20 1 16 21
M  V30 21 1 18 22
M  V30 22 1 18 23
M  V30 23 1 19 24
M  V30 24 1 20 25
M  V30 25 2 21 26
M  V30 26 1 21 27
M  V30 27 1 24 28
M  V30 28 1 7 8
M  V30 29 1 13 14
M  V30 30 2 16 17
M  V30 31 1 22 23
M  V30 END BOND
M  V30 BEGIN COLLECTION
M  V30 MDLV30/STERAC1 ATOMS=(1 14)
M  V30 END COLLECTION
M  V30 END CTAB
M  END
>  <Molecule Name>


>  <status>
DISCONTINUED

>  <cas>
175463-14-6

>  <name>
GEMIFLOXACIN

>  <ID>
864

>  <Smiles>
CO/N=C(\C1)/C(CN)CN1c(nc(c1c2)N(C3CC3)C=C(C([O-])=O)C1=O)c2F

$$$$

Actelion Java MolfileCreator 2.0

  0  0  0  0  0  0              0 V3000
M  V30 BEGIN CTAB
M  V30 COUNTS 22 25 0 0 0
M  V30 BEGIN ATOM
M  V30 1 Cl 0.866 0.0 0.0 0
M  V30 2 C 0.0 -0.5 0.0 0
M  V30 3 C -0.866 0.0 0.0 0
M  V30 4 C 0.0 -1.4999 0.0 0
M  V30 5 C -1.732 -0.4999 0.0 0
M  V30 6 C -0.866 -1.9999 0.0 0
M  V30 7 C -1.732 -1.4999 0.0 0
M  V30 8 C -2.5138 0.1234 0.0 0
M  V30 9 C -2.5138 -2.1234 0.0 0
M  V30 10 C -3.4888 -0.099 0.0 0
M  V30 11 C -3.4888 -1.9009 0.0 0
M  V30 12 C -2.2913 -3.0984 0.0 0
M  V30 13 C -3.9226 -0.9999 0.0 0
M  V30 14 N -4.0521 -2.7272 0.0 0
M  V30 15 C -3.0244 -3.7785 0.0 0
M  V30 16 C -1.3357 -3.3931 0.0 0
M  V30 17 C -4.9198 -0.9252 0.0 0
M  V30 18 C -5.0493 -2.6524 0.0 0
M  V30 19 C -2.8018 -4.7535 0.0 0
M  V30 20 C -1.1132 -4.3681 0.0 0
M  V30 21 C -5.4832 -1.7515 0.0 0
M  V30 22 N -1.8463 -5.0482 0.0 0
M  V30 END ATOM
M  V30 BEGIN BOND
M  V30 1 1 1 2
M  V30 2 2 2 3
M  V30 3 1 2 4
M  V30 4 1 3 5
M  V30 5 2 4 6
M  V30 6 2 5 7
M  V30 7 1 5 8
M  V30 8 1 7 9
M  V30 9 1 8 10
M  V30 10 1 9 11
M  V30 11 2 9 12
M  V30 12 1 10 13
M  V30 13 1 11 14
M  V30 14 1 12 15
M  V30 15 1 12 16
M  V30 16 1 13 17
M  V30 17 2 14 18
M  V30 18 1 15 19
M  V30 19 1 16 20
M  V30 20 2 17 21
M  V30 21 1 19 22
M  V30 22 1 6 7
M  V30 23 2 11 13
M  V30 24 1 18 21
M  V30 25 1 20 22
M  V30 END BOND
M  V30 END CTAB
M  END
>  <Molecule Name>


>  <status>
-

>  <cas>
100643-71-8

>  <name>
DESLORATADINE

>  <ID>
865

>  <Smiles>
Clc(cc1)cc(CCc2c3nccc2)c1C3=C1CCNCC1

$$$$

Actelion Java MolfileCreator 2.0

  0  0  0  0  0  0              0 V3000
M  V30 BEGIN CTAB
M  V30 COUNTS 24 27 0 0 0
M  V30 BEGIN ATOM
M  V30 1 O 10.8905 2.9296 0.0 0
M  V30 2 C 9.5112 2.3155 0.0 0
M  V30 3 C 9.3534 0.814 0.0 0
M  V30 4 C 8.2898 3.2029 0.0 0
M  V30 5 C 7.9742 0.1999 0.0 0
M  V30 6 C 6.9105 2.5888 0.0 0
M  V30 7 C 6.7527 1.0873 0.0 0 CFG=2
M  V30 8 C 7.8164 -1.3015 0.0 0
M  V30 9 C 5.3735 0.4732 0.0 0 CFG=1
M  V30 10 C 6.4371 -1.9156 0.0 0
M  V30 11 C 4.152 1.3607 0.0 0
M  V30 12 C 5.2157 -1.0282 0.0 0 CFG=1
M  V30 13 C 4.3099 2.8622 0.0 0
M  V30 14 C 2.7728 0.7466 0.0 0
M  V30 15 C 3.8364 -1.6423 0.0 0 CFG=1
M  V30 16 C 2.615 -0.7548 0.0 0 CFG=1
M  V30 17 C 3.3699 -3.0782 0.0 0
M  V30 18 C 1.3935 -1.6423 0.0 0 CFG=2
M  V30 19 C 1.4029 0.0961 0.0 0
M  V30 20 C 1.8601 -3.0782 0.0 0
M  V30 21 O 0.9664 -0.3433 0.0 0
M  V30 22 C -0.0423 -1.1757 0.0 0
M  V30 23 C 1.3075 1.5097 0.0 0
M  V30 24 C -1.4781 -0.7092 0.0 0
M  V30 END ATOM
M  V30 BEGIN BOND
M  V30 1 2 1 2
M  V30 2 1 2 3
M  V30 3 1 2 4
M  V30 4 2 3 5
M  V30 5 1 4 6
M  V30 6 1 7 5
M  V30 7 1 5 8
M  V30 8 1 9 7
M  V30 9 1 8 10
M  V30 10 1 9 11 CFG=3
M  V30 11 1 12 9
M  V30 12 2 11 13
M  V30 13 1 11 14
M  V30 14 1 15 12
M  V30 15 1 16 14
M  V30 16 1 15 17 CFG=3
M  V30 17 1 18 16
M  V30 18 1 16 19 CFG=3
M  V30 19 1 17 20
M  V30 20 1 18 21 CFG=3
M  V30 21 1 18 22
M  V30 22 1 19 23
M  V30 23 3 22 24
M  V30 24 1 7 6 CFG=1
M  V30 25 1 12 10 CFG=1
M  V30 26 1 15 16
M  V30 27 1 18 20
M  V30 END BOND
M  V30 BEGIN COLLECTION
M  V30 MDLV30/STERAC1 ATOMS=(6 7 9 12 15 16 18)
M  V30 END COLLECTION
M  V30 END CTAB
M  END
>  <Molecule Name>


>  <status>
-

>  <cas>
54048-10-1

>  <name>
ETONOGESTREL

>  <ID>
866

>  <Smiles>
CC[C@](C1)([C@@H](CC2)[C@H](CCC([C@@H]3CC4)=CC4=O)[C@@H]3C1=C)[C@@]2(C#C)O

$$$$

Actelion Java MolfileCreator 2.0

  0  0  0  0  0  0              0 V3000
M  V30 BEGIN CTAB
M  V30 COUNTS 102 107 0 0 0
M  V30 BEGIN ATOM
M  V30 1 Cl 17.3205 -3.5 0.0 0
M  V30 2 C 18.1865 -3.0 0.0 0
M  V30 3 C 19.0525 -3.5 0.0 0
M  V30 4 C 18.1865 -2.0 0.0 0
M  V30 5 C 19.9185 -3.0 0.0 0
M  V30 6 C 19.0525 -1.5 0.0 0
M  V30 7 C 19.9185 -2.0 0.0 0
M  V30 8 C 20.7846 -1.4999 0.0 0
M  V30 9 C 20.7846 -0.5 0.0 0 CFG=1
M  V30 10 N 21.6506 0.0 0.0 0
M  V30 11 C 19.9185 0.0 0.0 0
M  V30 12 C 22.5166 -0.5 0.0 0
M  V30 13 O 19.9185 0.9999 0.0 0
M  V30 14 N 19.0525 -0.5 0.0 0
M  V30 15 O 22.5166 -1.4999 0.0 0
M  V30 16 C 23.3826 0.0 0.0 0 CFG=2
M  V30 17 C 18.1865 0.0 0.0 0 CFG=1
M  V30 18 N 24.2487 -0.5 0.0 0
M  V30 19 C 23.3826 1.0 0.0 0
M  V30 20 C 17.3205 -0.5 0.0 0
M  V30 21 C 18.1865 1.0 0.0 0
M  V30 22 C 25.1147 0.0 0.0 0
M  V30 23 C 22.5166 1.5 0.0 0
M  V30 24 O 17.3205 -1.4999 0.0 0
M  V30 25 N 16.4544 0.0 0.0 0
M  V30 26 C 17.3205 1.5 0.0 0
M  V30 27 O 25.9807 -0.5 0.0 0
M  V30 28 C 25.1147 0.9999 0.0 0
M  V30 29 C 22.5166 2.5 0.0 0
M  V30 30 C 21.6506 1.0 0.0 0
M  V30 31 C 15.5884 -0.5 0.0 0 CFG=2
M  V30 32 C 17.3205 2.5 0.0 0
M  V30 33 C 16.4544 1.0 0.0 0
M  V30 34 C 21.6506 3.0 0.0 0
M  V30 35 C 20.7846 1.5 0.0 0
M  V30 36 C 14.7224 0.0 0.0 0
M  V30 37 C 15.5884 -1.4999 0.0 0
M  V30 38 N 16.4544 3.0 0.0 0
M  V30 39 C 15.5884 1.5 0.0 0
M  V30 40 C 20.7846 2.5 0.0 0
M  V30 41 C 21.6506 4.0 0.0 0
M  V30 42 O 14.7224 1.0 0.0 0
M  V30 43 N 13.8564 -0.5 0.0 0
M  V30 44 O 16.4544 -2.0 0.0 0
M  V30 45 C 15.5884 2.5 0.0 0
M  V30 46 C 19.9185 3.0 0.0 0
M  V30 47 C 20.7846 4.5 0.0 0
M  V30 48 C 12.9903 0.0 0.0 0 CFG=2
M  V30 49 C 19.9185 4.0 0.0 0
M  V30 50 C 12.1243 -0.5 0.0 0
M  V30 51 C 12.9903 0.9999 0.0 0
M  V30 52 O 12.1243 -1.5 0.0 0
M  V30 53 N 11.2583 0.0 0.0 0
M  V30 54 C 12.1243 1.4999 0.0 0
M  V30 55 C 10.3923 -0.5 0.0 0 CFG=1
M  V30 56 C 12.1243 2.4999 0.0 0
M  V30 57 C 11.2583 0.9999 0.0 0
M  V30 58 C 9.5262 0.0 0.0 0
M  V30 59 C 10.3923 -1.4999 0.0 0
M  V30 60 C 11.2583 2.9999 0.0 0
M  V30 61 C 10.3923 1.4999 0.0 0
M  V30 62 O 9.5262 1.0 0.0 0
M  V30 63 N 8.6602 -0.5 0.0 0
M  V30 64 C 11.2583 -1.9999 0.0 0
M  V30 65 C 10.3923 2.4999 0.0 0
M  V30 66 C 8.6602 -1.5 0.0 0 CFG=2
M  V30 67 C 11.2583 -3.0 0.0 0
M  V30 68 O 9.5262 2.9999 0.0 0
M  V30 69 C 7.7942 -1.9999 0.0 0
M  V30 70 C 9.5262 -2.0 0.0 0
M  V30 71 N 12.1243 -3.5 0.0 0
M  V30 72 O 6.9282 -1.4999 0.0 0
M  V30 73 N 7.7942 -2.9999 0.0 0
M  V30 74 C 9.5262 -3.0 0.0 0
M  V30 75 C 12.1243 -4.5 0.0 0
M  V30 76 C 6.9282 -3.4999 0.0 0 CFG=2
M  V30 77 C 8.6602 -3.5 0.0 0
M  V30 78 C 10.3923 -3.5 0.0 0
M  V30 79 O 11.2583 -5.0 0.0 0
M  V30 80 N 12.9903 -5.0 0.0 0
M  V30 81 C 6.0621 -2.9999 0.0 0
M  V30 82 C 6.9282 -4.4999 0.0 0
M  V30 83 O 6.0621 -1.9999 0.0 0
M  V30 84 N 5.1961 -3.4999 0.0 0
M  V30 85 C 6.0621 -4.9999 0.0 0
M  V30 86 C 4.2826 -3.0932 0.0 0 CFG=2
M  V30 87 C 5.0916 -4.4945 0.0 0
M  V30 88 C 6.0621 -5.9999 0.0 0
M  V30 89 C 4.0746 -2.1151 0.0 0
M  V30 90 C 3.6134 -3.8364 0.0 0
M  V30 91 C 4.1134 -4.7024 0.0 0
M  V30 92 N 5.1961 -6.4999 0.0 0
M  V30 93 O 4.8178 -1.4459 0.0 0
M  V30 94 N 3.1236 -1.806 0.0 0
M  V30 95 C 5.1961 -7.4999 0.0 0
M  V30 96 C 2.9157 -0.8279 0.0 0 CFG=1
M  V30 97 N 6.0621 -8.0 0.0 0 CHG=1
M  V30 98 N 4.3301 -7.9999 0.0 0
M  V30 99 C 1.9646 -0.5189 0.0 0
M  V30 100 C 3.6588 -0.1588 0.0 0
M  V30 101 O 1.2215 -1.188 0.0 0
M  V30 102 N 1.7567 0.4592 0.0 0
M  V30 END ATOM
M  V30 BEGIN BOND
M  V30 1 1 1 2
M  V30 2 2 2 3
M  V30 3 1 2 4
M  V30 4 1 3 5
M  V30 5 2 4 6
M  V30 6 2 5 7
M  V30 7 1 7 8
M  V30 8 1 9 8
M  V30 9 1 9 10 CFG=3
M  V30 10 1 9 11
M  V30 11 1 10 12
M  V30 12 2 11 13
M  V30 13 1 11 14
M  V30 14 2 12 15
M  V30 15 1 16 12
M  V30 16 1 17 14 CFG=1
M  V30 17 1 16 18 CFG=1
M  V30 18 1 16 19
M  V30 19 1 17 20
M  V30 20 1 17 21
M  V30 21 1 18 22
M  V30 22 1 19 23
M  V30 23 2 20 24
M  V30 24 1 20 25
M  V30 25 1 21 26
M  V30 26 2 22 27
M  V30 27 1 22 28
M  V30 28 2 23 29
M  V30 29 1 23 30
M  V30 30 1 31 25 CFG=1
M  V30 31 2 26 32
M  V30 32 1 26 33
M  V30 33 1 29 34
M  V30 34 2 30 35
M  V30 35 1 31 36
M  V30 36 1 31 37
M  V30 37 1 32 38
M  V30 38 2 33 39
M  V30 39 1 34 40
M  V30 40 2 34 41
M  V30 41 2 36 42
M  V30 42 1 36 43
M  V30 43 1 37 44
M  V30 44 2 38 45
M  V30 45 2 40 46
M  V30 46 1 41 47
M  V30 47 1 48 43 CFG=3
M  V30 48 1 46 49
M  V30 49 1 48 50
M  V30 50 1 48 51
M  V30 51 2 50 52
M  V30 52 1 50 53
M  V30 53 1 51 54
M  V30 54 1 55 53 CFG=3
M  V30 55 2 54 56
M  V30 56 1 54 57
M  V30 57 1 55 58
M  V30 58 1 55 59
M  V30 59 1 56 60
M  V30 60 2 57 61
M  V30 61 2 58 62
M  V30 62 1 58 63
M  V30 63 1 59 64
M  V30 64 2 60 65
M  V30 65 1 66 63 CFG=1
M  V30 66 1 64 67
M  V30 67 1 65 68
M  V30 68 1 66 69
M  V30 69 1 66 70
M  V30 70 1 67 71
M  V30 71 2 69 72
M  V30 72 1 69 73
M  V30 73 1 70 74
M  V30 74 1 71 75
M  V30 75 1 76 73 CFG=1
M  V30 76 1 74 77
M  V30 77 1 74 78
M  V30 78 2 75 79
M  V30 79 1 75 80
M  V30 80 1 76 81
M  V30 81 1 76 82
M  V30 82 2 81 83
M  V30 83 1 81 84
M  V30 84 1 82 85
M  V30 85 1 86 84
M  V30 86 1 84 87
M  V30 87 1 85 88
M  V30 88 1 86 89 CFG=1
M  V30 89 1 86 90
M  V30 90 1 87 91
M  V30 91 1 88 92
M  V30 92 2 89 93
M  V30 93 1 89 94
M  V30 94 1 92 95
M  V30 95 1 96 94 CFG=1
M  V30 96 2 95 97
M  V30 97 1 95 98
M  V30 98 1 96 99
M  V30 99 1 96 100
M  V30 100 2 99 101
M  V30 101 1 99 102
M  V30 102 1 6 7
M  V30 103 1 35 40
M  V30 104 1 39 45
M  V30 105 2 47 49
M  V30 106 1 61 65
M  V30 107 1 90 91
M  V30 END BOND
M  V30 BEGIN COLLECTION
M  V30 MDLV30/STERAC1 ATOMS=(10 9 16 17 31 48 55 66 76 86 96)
M  V30 END COLLECTION
M  V30 END CTAB
M  END
>  <Molecule Name>


>  <status>
-

>  <cas>
120287-85-6

>  <name>
CETRORELIX

>  <ID>
867

>  <Smiles>
CC(C)C[C@@H](C(N[C@@H](CCCNC(N)=[NH2+])C(N(CCC1)[C@@H]1C(N[C@H](C)C(N)=O)=O)=O)=O)NC([C@@H](CCCNC(N)=O)NC([C@H](Cc(cc1)ccc1O)NC([C@H](CO)NC([C@@H](Cc1cnccc1)NC([C@@H](Cc(cc1)ccc1Cl)NC([C@@H](Cc1cc2ccccc2cc1)NC(C)=O)=O)=O)=O)=O)=O)=O

$$$$

Actelion Java MolfileCreator 2.0

  0  0  0  0  0  0              0 V3000
M  V30 BEGIN CTAB
M  V30 COUNTS 22 23 0 0 0
M  V30 BEGIN ATOM
M  V30 1 O 7.7355 -3.9318 0.0 0
M  V30 2 C 8.4046 -3.1887 0.0 0
M  V30 3 C 8.0445 -4.8829 0.0 0
M  V30 4 C 8.0956 -2.2376 0.0 0
M  V30 5 C 9.3828 -3.3966 0.0 0
M  V30 6 C 8.7647 -1.4945 0.0 0
M  V30 7 C 10.0519 -2.6534 0.0 0
M  V30 8 C 9.7429 -1.7024 0.0 0
M  V30 9 C 8.6602 -0.5 0.0 0
M  V30 10 N 10.2429 -0.8364 0.0 0
M  V30 11 C 9.5737 -0.0932 0.0 0
M  V30 12 C 7.7942 0.0 0.0 0
M  V30 13 N 6.9282 -0.5 0.0 0
M  V30 14 N 6.0621 0.0 0.0 0
M  V30 15 C 5.1961 -0.5 0.0 0
M  V30 16 N 5.1961 -1.4999 0.0 0
M  V30 17 N 4.3301 0.0 0.0 0
M  V30 18 C 3.4641 -0.5 0.0 0
M  V30 19 C 2.598 0.0 0.0 0
M  V30 20 C 1.732 -0.5 0.0 0
M  V30 21 C 0.866 0.0 0.0 0
M  V30 22 C 0.0 -0.5 0.0 0
M  V30 END ATOM
M  V30 BEGIN BOND
M  V30 1 1 1 2
M  V30 2 1 1 3
M  V30 3 2 2 4
M  V30 4 1 2 5
M  V30 5 1 4 6
M  V30 6 2 5 7
M  V30 7 2 6 8
M  V30 8 1 6 9
M  V30 9 1 8 10
M  V30 10 2 9 11
M  V30 11 1 9 12
M  V30 12 2 12 13
M  V30 13 1 13 14
M  V30 14 1 14 15
M  V30 15 2 15 16
M  V30 16 1 15 17
M  V30 17 1 17 18
M  V30 18 1 18 19
M  V30 19 1 19 20
M  V30 20 1 20 21
M  V30 21 1 21 22
M  V30 22 1 7 8
M  V30 23 1 10 11
M  V30 END BOND
M  V30 END CTAB
M  END
>  <Molecule Name>


>  <status>
DISCONTINUED

>  <cas>
145158-71-0

>  <name>
TEGASEROD

>  <ID>
868

>  <Smiles>
CCCCCNC(N/N=C/c1c[nH]c(cc2)c1cc2OC)=N

$$$$

Actelion Java MolfileCreator 2.0

  0  0  0  0  0  0              0 V3000
M  V30 BEGIN CTAB
M  V30 COUNTS 23 24 0 0 0
M  V30 BEGIN ATOM
M  V30 1 O 4.3301 0.0 0.0 0
M  V30 2 C 3.4641 -0.5 0.0 0
M  V30 3 N 2.598 0.0 0.0 0
M  V30 4 C 3.4641 -1.5 0.0 0 CFG=1
M  V30 5 C 1.732 -0.5 0.0 0 CFG=2
M  V30 6 C 2.598 -2.0 0.0 0
M  V30 7 C 4.3301 -1.9999 0.0 0
M  V30 8 C 0.866 0.0 0.0 0
M  V30 9 C 1.732 -1.5 0.0 0
M  V30 10 C 2.598 -3.0 0.0 0
M  V30 11 C 4.3301 -2.9999 0.0 0
M  V30 12 O 0.0 -0.4999 0.0 0
M  V30 13 O 0.866 1.0 0.0 0 CHG=-1
M  V30 14 C 0.866 -2.0 0.0 0
M  V30 15 C 3.4641 -3.4999 0.0 0 CFG=1
M  V30 16 C 0.866 -3.0 0.0 0
M  V30 17 C 0.0 -1.5 0.0 0
M  V30 18 C 3.4641 -4.5 0.0 0
M  V30 19 C 0.0 -3.5 0.0 0
M  V30 20 C -0.866 -2.0 0.0 0
M  V30 21 C 2.598 -5.0 0.0 0
M  V30 22 C 4.3301 -4.9999 0.0 0
M  V30 23 C -0.866 -3.0 0.0 0
M  V30 END ATOM
M  V30 BEGIN BOND
M  V30 1 2 1 2
M  V30 2 1 2 3
M  V30 3 1 4 2 CFG=3
M  V30 4 1 5 3 CFG=1
M  V30 5 1 4 6
M  V30 6 1 4 7
M  V30 7 1 5 8
M  V30 8 1 5 9
M  V30 9 1 6 10
M  V30 10 1 7 11
M  V30 11 2 8 12
M  V30 12 1 8 13
M  V30 13 1 9 14
M  V30 14 1 15 10
M  V30 15 2 14 16
M  V30 16 1 14 17
M  V30 17 1 15 18 CFG=1
M  V30 18 1 16 19
M  V30 19 2 17 20
M  V30 20 1 18 21
M  V30 21 1 18 22
M  V30 22 2 19 23
M  V30 23 1 11 15
M  V30 24 1 20 23
M  V30 END BOND
M  V30 BEGIN COLLECTION
M  V30 MDLV30/STEABS ATOMS=(2 4 15)
M  V30 MDLV30/STERAC1 ATOMS=(1 5)
M  V30 END COLLECTION
M  V30 END CTAB
M  END
>  <Molecule Name>


>  <status>
-

>  <cas>
105816-04-4

>  <name>
NATEGLINIDE

>  <ID>
869

>  <Smiles>
CC(C)[C@H](CC1)CC[C@@H]1C(NC(Cc1ccccc1)C([O-])=O)=O

$$$$

Actelion Java MolfileCreator 2.0

  0  0  0  0  0  0              0 V3000
M  V30 BEGIN CTAB
M  V30 COUNTS 46 49 0 0 0
M  V30 BEGIN ATOM
M  V30 1 O 12.9903 -0.75 0.0 0
M  V30 2 C 14.2894 0.0 0.0 0
M  V30 3 N 14.2894 1.5 0.0 0
M  V30 4 N 15.5884 -0.75 0.0 0
M  V30 5 C 12.9903 2.25 0.0 0 CFG=2
M  V30 6 C 15.5884 2.25 0.0 0
M  V30 7 C 16.8874 0.0 0.0 0
M  V30 8 C 11.6913 1.5 0.0 0
M  V30 9 C 12.9903 3.7499 0.0 0
M  V30 10 C 16.8874 1.5 0.0 0
M  V30 11 O 10.3923 2.25 0.0 0
M  V30 12 N 11.6913 0.0 0.0 0
M  V30 13 C 14.2894 4.4999 0.0 0
M  V30 14 C 11.6913 4.5 0.0 0
M  V30 15 C 10.3923 -0.75 0.0 0 CFG=1
M  V30 16 C 10.3923 -2.25 0.0 0
M  V30 17 C 9.0932 0.0 0.0 0
M  V30 18 C 11.6913 -3.0 0.0 0
M  V30 19 C 7.7942 -0.75 0.0 0 CFG=2
M  V30 20 C 11.6913 -4.5 0.0 0
M  V30 21 C 12.9903 -2.25 0.0 0
M  V30 22 O 6.4951 0.0 0.0 0
M  V30 23 C 7.7942 -2.25 0.0 0 CFG=1
M  V30 24 C 12.9903 -5.25 0.0 0
M  V30 25 C 14.2894 -3.0 0.0 0
M  V30 26 N 9.0932 -3.0 0.0 0
M  V30 27 C 6.4951 -2.9999 0.0 0
M  V30 28 C 14.2894 -4.5 0.0 0
M  V30 29 C 9.0932 -4.5 0.0 0
M  V30 30 C 5.1961 -2.2499 0.0 0
M  V30 31 O 10.3923 -5.25 0.0 0
M  V30 32 C 7.7942 -5.25 0.0 0
M  V30 33 C 3.8971 -2.9999 0.0 0
M  V30 34 C 5.1961 -0.7499 0.0 0
M  V30 35 O 7.7942 -6.75 0.0 0
M  V30 36 C 2.598 -2.2499 0.0 0
M  V30 37 C 3.8971 0.0 0.0 0
M  V30 38 C 6.4951 -7.5 0.0 0
M  V30 39 C 2.598 -0.7499 0.0 0
M  V30 40 C 6.4951 -9.0 0.0 0
M  V30 41 C 5.1961 -6.75 0.0 0
M  V30 42 C 5.1961 -9.75 0.0 0
M  V30 43 C 7.7942 -9.75 0.0 0
M  V30 44 C 3.8971 -7.5 0.0 0
M  V30 45 C 5.1961 -5.25 0.0 0
M  V30 46 C 3.8971 -9.0 0.0 0
M  V30 END ATOM
M  V30 BEGIN BOND
M  V30 1 2 1 2
M  V30 2 1 2 3
M  V30 3 1 2 4
M  V30 4 1 5 3 CFG=3
M  V30 5 1 3 6
M  V30 6 1 4 7
M  V30 7 1 5 8
M  V30 8 1 5 9
M  V30 9 1 6 10
M  V30 10 2 8 11
M  V30 11 1 8 12
M  V30 12 1 9 13
M  V30 13 1 9 14
M  V30 14 1 15 12 CFG=1
M  V30 15 1 15 16
M  V30 16 1 15 17
M  V30 17 1 16 18
M  V30 18 1 19 17
M  V30 19 2 18 20
M  V30 20 1 18 21
M  V30 21 1 19 22 CFG=1
M  V30 22 1 23 19
M  V30 23 1 20 24
M  V30 24 2 21 25
M  V30 25 1 23 26 CFG=1
M  V30 26 1 23 27
M  V30 27 2 24 28
M  V30 28 1 26 29
M  V30 29 1 27 30
M  V30 30 2 29 31
M  V30 31 1 29 32
M  V30 32 2 30 33
M  V30 33 1 30 34
M  V30 34 1 32 35
M  V30 35 1 33 36
M  V30 36 2 34 37
M  V30 37 1 35 38
M  V30 38 2 36 39
M  V30 39 2 38 40
M  V30 40 1 38 41
M  V30 41 1 40 42
M  V30 42 1 40 43
M  V30 43 2 41 44
M  V30 44 1 41 45
M  V30 45 2 42 46
M  V30 46 1 7 10
M  V30 47 1 25 28
M  V30 48 1 37 39
M  V30 49 1 44 46
M  V30 END BOND
M  V30 BEGIN COLLECTION
M  V30 MDLV30/STERAC1 ATOMS=(4 5 15 19 23)
M  V30 END COLLECTION
M  V30 END CTAB
M  END
>  <Molecule Name>


>  <status>
-

>  <cas>
192725-17-0

>  <name>
LOPINAVIR

>  <ID>
870

>  <Smiles>
CC(C)[C@@H](C(N[C@H](C[C@@H]([C@H](Cc1ccccc1)NC(COc1c(C)cccc1C)=O)O)Cc1ccccc1)=O)N(CCCN1)C1=O

$$$$

Actelion Java MolfileCreator 2.0

  0  0  0  0  0  0              0 V3000
M  V30 BEGIN CTAB
M  V30 COUNTS 23 24 0 0 0
M  V30 BEGIN ATOM
M  V30 1 F 3.8301 0.866 0.0 0
M  V30 2 C 4.3301 0.0 0.0 0
M  V30 3 F 5.1961 0.4999 0.0 0
M  V30 4 F 4.8301 -0.866 0.0 0
M  V30 5 C 3.4641 -0.5 0.0 0
M  V30 6 C 2.598 0.0 0.0 0
M  V30 7 C 3.4641 -1.4999 0.0 0
M  V30 8 C 1.732 -0.5 0.0 0
M  V30 9 C 2.598 -2.0 0.0 0
M  V30 10 N 0.866 0.0 0.0 0 CHG=1
M  V30 11 C 1.732 -1.5 0.0 0
M  V30 12 O 0.866 1.0 0.0 0
M  V30 13 O 0.0 -0.5 0.0 0 CHG=-1
M  V30 14 C 0.866 -1.9999 0.0 0
M  V30 15 O 0.0 -1.4999 0.0 0
M  V30 16 C 0.866 -2.9999 0.0 0
M  V30 17 C 0.0 -3.4999 0.0 0
M  V30 18 C 1.732 -3.5 0.0 0
M  V30 19 O -0.866 -2.9999 0.0 0
M  V30 20 C 0.0 -4.4999 0.0 0
M  V30 21 O 2.598 -3.0 0.0 0
M  V30 22 C 1.732 -4.5 0.0 0
M  V30 23 C 0.866 -4.9999 0.0 0
M  V30 END ATOM
M  V30 BEGIN BOND
M  V30 1 1 1 2
M  V30 2 1 2 3
M  V30 3 1 2 4
M  V30 4 1 2 5
M  V30 5 2 5 6
M  V30 6 1 5 7
M  V30 7 1 6 8
M  V30 8 2 7 9
M  V30 9 1 8 10
M  V30 10 2 8 11
M  V30 11 2 10 12
M  V30 12 1 10 13
M  V30 13 1 11 14
M  V30 14 2 14 15
M  V30 15 1 14 16
M  V30 16 1 16 17
M  V30 17 1 16 18
M  V30 18 2 17 19
M  V30 19 1 17 20
M  V30 20 2 18 21
M  V30 21 1 18 22
M  V30 22 1 20 23
M  V30 23 1 9 11
M  V30 24 1 22 23
M  V30 END BOND
M  V30 END CTAB
M  END
>  <Molecule Name>


>  <status>
-

>  <cas>
104206-65-7

>  <name>
NITISINONE

>  <ID>
871

>  <Smiles>
[O-][N+](c(cc(C(F)(F)F)cc1)c1C(C(C(CCC1)=O)C1=O)=O)=O

$$$$

Actelion Java MolfileCreator 2.0

  0  0  0  0  0  0              0 V3000
M  V30 BEGIN CTAB
M  V30 COUNTS 35 36 0 0 0
M  V30 BEGIN ATOM
M  V30 1 F 1.9139 -4.3472 0.0 0
M  V30 2 C 1.2448 -3.6041 0.0 0
M  V30 3 F 0.5016 -4.2732 0.0 0
M  V30 4 F 0.5757 -2.8609 0.0 0
M  V30 5 C 1.9879 -2.9349 0.0 0
M  V30 6 C 2.939 -3.2439 0.0 0
M  V30 7 C 1.78 -1.9568 0.0 0
M  V30 8 C 3.6821 -2.5748 0.0 0
M  V30 9 C 2.5232 -1.2876 0.0 0
M  V30 10 O 4.6332 -2.8838 0.0 0
M  V30 11 C 3.4742 -1.5967 0.0 0
M  V30 12 C 5.3763 -2.2147 0.0 0
M  V30 13 C 6.3274 -2.5237 0.0 0 CFG=1
M  V30 14 O 6.5353 -3.5019 0.0 0
M  V30 15 C 7.0705 -1.8546 0.0 0
M  V30 16 C 8.0216 -2.1636 0.0 0
M  V30 17 C 8.7647 -1.4945 0.0 0 CFG=2
M  V30 18 C 9.7429 -1.7024 0.0 0 CFG=1
M  V30 19 C 8.6602 -0.5 0.0 0 CFG=1
M  V30 20 O 10.1496 -2.6159 0.0 0
M  V30 21 C 10.2429 -0.8364 0.0 0
M  V30 22 C 9.5737 -0.0932 0.0 0 CFG=1
M  V30 23 C 7.7942 0.0 0.0 0
M  V30 24 O 9.7817 0.8848 0.0 0
M  V30 25 C 6.9282 -0.5 0.0 0
M  V30 26 C 6.0621 0.0 0.0 0
M  V30 27 C 6.0621 1.0 0.0 0
M  V30 28 C 5.1961 1.5 0.0 0
M  V30 29 C 5.1961 2.5 0.0 0
M  V30 30 C 4.3301 3.0 0.0 0
M  V30 31 O 3.4641 2.5 0.0 0
M  V30 32 O 4.3301 4.0 0.0 0
M  V30 33 C 3.4641 4.5 0.0 0
M  V30 34 C 2.598 4.0 0.0 0
M  V30 35 C 3.4641 5.5 0.0 0
M  V30 END ATOM
M  V30 BEGIN BOND
M  V30 1 1 1 2
M  V30 2 1 2 3
M  V30 3 1 2 4
M  V30 4 1 2 5
M  V30 5 2 5 6
M  V30 6 1 5 7
M  V30 7 1 6 8
M  V30 8 2 7 9
M  V30 9 1 8 10
M  V30 10 2 8 11
M  V30 11 1 10 12
M  V30 12 1 13 12
M  V30 13 1 13 14 CFG=3
M  V30 14 1 13 15
M  V30 15 2 15 16
M  V30 16 1 17 16 CFG=1
M  V30 17 1 18 17
M  V30 18 1 19 17
M  V30 19 1 18 20 CFG=3
M  V30 20 1 18 21
M  V30 21 1 22 19
M  V30 22 1 19 23 CFG=3
M  V30 23 1 22 24 CFG=3
M  V30 24 1 23 25
M  V30 25 2 25 26
M  V30 26 1 26 27
M  V30 27 1 27 28
M  V30 28 1 28 29
M  V30 29 1 29 30
M  V30 30 2 30 31
M  V30 31 1 30 32
M  V30 32 1 32 33
M  V30 33 1 33 34
M  V30 34 1 33 35
M  V30 35 1 9 11
M  V30 36 1 21 22
M  V30 END BOND
M  V30 BEGIN COLLECTION
M  V30 MDLV30/STERAC1 ATOMS=(5 13 17 18 19 22)
M  V30 END COLLECTION
M  V30 END CTAB
M  END
>  <Molecule Name>


>  <status>
-

>  <cas>
157283-68-6

>  <name>
TRAVOPROST

>  <ID>
872

>  <Smiles>
CC(C)OC(CCC/C=C\C[C@H]([C@@H](C[C@@H]1O)O)[C@@H]1/C=C/[C@@H](COc1cccc(C(F)(F)F)c1)O)=O

$$$$

Actelion Java MolfileCreator 2.0

  0  0  0  0  0  0              0 V3000
M  V30 BEGIN CTAB
M  V30 COUNTS 20 23 0 0 0
M  V30 BEGIN ATOM
M  V30 1 O 1.299 0.0 0.0 0
M  V30 2 C 0.0 -0.75 0.0 0
M  V30 3 C -1.299 0.0 0.0 0
M  V30 4 C 0.0 -2.2499 0.0 0
M  V30 5 C -1.299 1.5 0.0 0
M  V30 6 C -2.598 -0.7499 0.0 0
M  V30 7 O 1.299 -3.0 0.0 0
M  V30 8 C -1.299 -2.9999 0.0 0
M  V30 9 C -2.598 2.25 0.0 0
M  V30 10 C 0.0 2.25 0.0 0
M  V30 11 C -2.598 -2.2499 0.0 0
M  V30 12 C -3.8971 0.0 0.0 0
M  V30 13 C -2.598 3.75 0.0 0
M  V30 14 C -3.8971 1.5 0.0 0 CFG=2
M  V30 15 C 0.0 3.75 0.0 0
M  V30 16 C -1.299 4.5 0.0 0
M  V30 17 C -3.8971 4.5 0.0 0
M  V30 18 N -5.1961 2.25 0.0 0
M  V30 19 C -5.1961 3.75 0.0 0
M  V30 20 C -6.4951 1.5 0.0 0
M  V30 END ATOM
M  V30 BEGIN BOND
M  V30 1 1 1 2
M  V30 2 2 2 3
M  V30 3 1 2 4
M  V30 4 1 3 5
M  V30 5 1 3 6
M  V30 6 1 4 7
M  V30 7 2 4 8
M  V30 8 2 5 9
M  V30 9 1 5 10
M  V30 10 2 6 11
M  V30 11 1 6 12
M  V30 12 1 9 13
M  V30 13 1 14 9
M  V30 14 2 10 15
M  V30 15 2 13 16
M  V30 16 1 13 17
M  V30 17 1 14 18 CFG=3
M  V30 18 1 17 19
M  V30 19 1 18 20
M  V30 20 1 8 11
M  V30 21 1 12 14
M  V30 22 1 15 16
M  V30 23 1 18 19
M  V30 END BOND
M  V30 BEGIN COLLECTION
M  V30 MDLV30/STERAC1 ATOMS=(1 14)
M  V30 END COLLECTION
M  V30 END CTAB
M  END
>  <Molecule Name>


>  <status>
-

>  <cas>
58-00-4

>  <name>
APOMORPHINE

>  <ID>
873

>  <Smiles>
CN(CCc1ccc2)C(Cc3ccc4O)c1c2-c3c4O

$$$$
_c001
Actelion Java MolfileCreator 2.0

  0  0  0  0  0  0              0 V3000
M  V30 BEGIN CTAB
M  V30 COUNTS 25 27 0 0 0
M  V30 BEGIN ATOM
M  V30 1 F 6.5159 1.5048 0.0 0
M  V30 2 C 5.2127 2.2572 0.0 0
M  V30 3 C 3.9095 1.5048 0.0 0
M  V30 4 C 5.2127 3.762 0.0 0
M  V30 5 N 2.6063 2.2572 0.0 0
M  V30 6 C 3.9095 0.0 0.0 0 CFG=2
M  V30 7 N 3.9095 4.5144 0.0 0
M  V30 8 C 2.6063 3.762 0.0 0
M  V30 9 C 2.6063 -0.7524 0.0 0 CFG=2
M  V30 10 C 5.2127 -0.3762 0.0 0
M  V30 11 O 2.6063 -2.2572 0.0 0
M  V30 12 C 3.9095 -1.5048 0.0 0
M  V30 13 C 1.3031 0.0 0.0 0
M  V30 14 C 5.2127 -0.9405 0.0 0
M  V30 15 C 3.9095 -3.0096 0.0 0
M  V30 16 N 0.0 -0.7524 0.0 0
M  V30 17 F 5.2127 0.7524 0.0 0
M  V30 18 C 6.5159 -1.5048 0.0 0
M  V30 19 C 5.2127 -3.762 0.0 0
M  V30 20 N -1.3747 -0.1403 0.0 0
M  V30 21 C -0.1572 -2.2489 0.0 0
M  V30 22 C 6.5159 -3.0096 0.0 0
M  V30 23 C -2.3816 -1.2586 0.0 0
M  V30 24 N -1.6292 -2.5618 0.0 0
M  V30 25 F 7.8191 -3.762 0.0 0
M  V30 END ATOM
M  V30 BEGIN BOND
M  V30 1 1 1 2
M  V30 2 2 2 3
M  V30 3 1 2 4
M  V30 4 1 3 5
M  V30 5 1 6 3
M  V30 6 2 4 7
M  V30 7 2 5 8
M  V30 8 1 9 6
M  V30 9 1 6 10 CFG=1
M  V30 10 1 9 11
M  V30 11 1 9 12 CFG=3
M  V30 12 1 9 13
M  V30 13 2 12 14
M  V30 14 1 12 15
M  V30 15 1 13 16
M  V30 16 1 14 17
M  V30 17 1 14 18
M  V30 18 2 15 19
M  V30 19 1 16 20
M  V30 20 1 16 21
M  V30 21 2 18 22
M  V30 22 2 20 23
M  V30 23 2 21 24
M  V30 24 1 22 25
M  V30 25 1 7 8
M  V30 26 1 19 22
M  V30 27 1 23 24
M  V30 END BOND
M  V30 BEGIN COLLECTION
M  V30 MDLV30/STERAC1 ATOMS=(2 6 9)
M  V30 END COLLECTION
M  V30 END CTAB
M  END
>  <Molecule Name>
_c001

>  <status>
-

>  <cas>
137234-62-9

>  <name>
VORICONAZOLE

>  <ID>
874

>  <Smiles>
C[C@@H]([C@@](Cn1ncnc1)(c(ccc(F)c1)c1F)O)c(ncnc1)c1F

$$$$

Actelion Java MolfileCreator 2.0

  0  0  0  0  0  0              0 V3000
M  V30 BEGIN CTAB
M  V30 COUNTS 28 30 0 0 0
M  V30 BEGIN ATOM
M  V30 1 O 11.4964 -2.8579 0.0 0
M  V30 2 C 11.8054 -1.9068 0.0 0
M  V30 3 O 12.7835 -1.6989 0.0 0 CHG=-1
M  V30 4 C 11.1363 -1.1637 0.0 0
M  V30 5 O 11.4453 -0.2126 0.0 0
M  V30 6 C 10.7761 0.5304 0.0 0
M  V30 7 C 9.798 0.3225 0.0 0
M  V30 8 C 11.0852 1.4815 0.0 0
M  V30 9 C 9.1289 1.0657 0.0 0
M  V30 10 C 9.489 -0.6284 0.0 0
M  V30 11 C 10.416 2.2246 0.0 0
M  V30 12 C 9.4379 2.0167 0.0 0
M  V30 13 C 8.1507 0.8577 0.0 0
M  V30 14 C 8.5108 -0.8364 0.0 0 CFG=1
M  V30 15 C 7.8417 -0.0932 0.0 0 CFG=2
M  V30 16 C 8.0108 -1.7024 0.0 0
M  V30 17 C 6.9282 -0.5 0.0 0 CFG=1
M  V30 18 C 7.0327 -1.4945 0.0 0 CFG=1
M  V30 19 C 6.0621 0.0 0.0 0
M  V30 20 O 6.2895 -2.1636 0.0 0
M  V30 21 C 5.1961 -0.5 0.0 0
M  V30 22 C 4.3301 0.0 0.0 0 CFG=2
M  V30 23 O 4.3301 1.0 0.0 0
M  V30 24 C 3.4641 -0.5 0.0 0
M  V30 25 C 2.598 0.0 0.0 0
M  V30 26 C 1.732 -0.5 0.0 0
M  V30 27 C 0.866 0.0 0.0 0
M  V30 28 C 0.0 -0.5 0.0 0
M  V30 END ATOM
M  V30 BEGIN BOND
M  V30 1 2 1 2
M  V30 2 1 2 3
M  V30 3 1 2 4
M  V30 4 1 4 5
M  V30 5 1 5 6
M  V30 6 2 6 7
M  V30 7 1 6 8
M  V30 8 1 7 9
M  V30 9 1 7 10
M  V30 10 2 8 11
M  V30 11 2 9 12
M  V30 12 1 9 13
M  V30 13 1 14 10 CFG=3
M  V30 14 1 15 13 CFG=3
M  V30 15 1 14 16
M  V30 16 1 17 15
M  V30 17 1 18 16
M  V30 18 1 17 19 CFG=1
M  V30 19 1 18 20 CFG=3
M  V30 20 1 19 21
M  V30 21 1 22 21
M  V30 22 1 22 23 CFG=1
M  V30 23 1 22 24
M  V30 24 1 24 25
M  V30 25 1 25 26
M  V30 26 1 26 27
M  V30 27 1 27 28
M  V30 28 1 11 12
M  V30 29 1 14 15
M  V30 30 1 17 18
M  V30 END BOND
M  V30 BEGIN COLLECTION
M  V30 MDLV30/STERAC1 ATOMS=(5 14 15 17 18 22)
M  V30 END COLLECTION
M  V30 END CTAB
M  END
>  <Molecule Name>


>  <status>
-

>  <cas>
81846-19-7

>  <name>
TREPROSTINIL

>  <ID>
875

>  <Smiles>
CCCCC[C@H](CC[C@H]([C@H](C1)O)[C@H](Cc2ccc3)[C@@H]1Cc2c3OCC([O-])=O)O

$$$$

Actelion Java MolfileCreator 2.0

  0  0  0  0  0  0              0 V3000
M  V30 BEGIN CTAB
M  V30 COUNTS 30 31 0 0 0
M  V30 BEGIN ATOM
M  V30 1 O 5.1961 2.5 0.0 0
M  V30 2 C 4.3301 3.0 0.0 0
M  V30 3 N 4.3301 4.0 0.0 0
M  V30 4 C 3.4641 2.5 0.0 0
M  V30 5 C 5.1961 4.5 0.0 0
M  V30 6 C 3.4641 1.5 0.0 0
M  V30 7 C 5.1961 5.5 0.0 0
M  V30 8 C 2.598 1.0 0.0 0
M  V30 9 C 2.598 0.0 0.0 0
M  V30 10 C 1.732 -0.5 0.0 0
M  V30 11 C 0.866 0.0 0.0 0
M  V30 12 C 0.0 -0.5 0.0 0 CFG=1
M  V30 13 C -0.9135 -0.0932 0.0 0 CFG=2
M  V30 14 C -0.1045 -1.4945 0.0 0 CFG=2
M  V30 15 C -1.1214 0.8848 0.0 0
M  V30 16 C -1.5826 -0.8364 0.0 0 CFG=2
M  V30 17 O 0.6386 -2.1636 0.0 0
M  V30 18 C -1.0826 -1.7024 0.0 0
M  V30 19 C -2.0725 1.1939 0.0 0
M  V30 20 O -2.5771 -0.7318 0.0 0
M  V30 21 C -2.2804 2.172 0.0 0 CFG=2
M  V30 22 O -1.5372 2.8411 0.0 0
M  V30 23 C -3.2314 2.481 0.0 0
M  V30 24 C -3.4393 3.4592 0.0 0
M  V30 25 C -4.3904 3.7682 0.0 0
M  V30 26 C -4.5983 4.7463 0.0 0
M  V30 27 C -5.1335 3.099 0.0 0
M  V30 28 C -5.5494 5.0553 0.0 0
M  V30 29 C -6.0846 3.4081 0.0 0
M  V30 30 C -6.2925 4.3862 0.0 0
M  V30 END ATOM
M  V30 BEGIN BOND
M  V30 1 2 1 2
M  V30 2 1 2 3
M  V30 3 1 2 4
M  V30 4 1 3 5
M  V30 5 1 4 6
M  V30 6 1 5 7
M  V30 7 1 6 8
M  V30 8 1 8 9
M  V30 9 2 9 10
M  V30 10 1 10 11
M  V30 11 1 12 11 CFG=3
M  V30 12 1 13 12
M  V30 13 1 14 12
M  V30 14 1 13 15 CFG=1
M  V30 15 1 16 13
M  V30 16 1 14 17 CFG=3
M  V30 17 1 14 18
M  V30 18 2 15 19
M  V30 19 1 16 20 CFG=3
M  V30 20 1 21 19
M  V30 21 1 21 22 CFG=1
M  V30 22 1 21 23
M  V30 23 1 23 24
M  V30 24 1 24 25
M  V30 25 2 25 26
M  V30 26 1 25 27
M  V30 27 1 26 28
M  V30 28 2 27 29
M  V30 29 2 28 30
M  V30 30 1 16 18
M  V30 31 1 29 30
M  V30 END BOND
M  V30 BEGIN COLLECTION
M  V30 MDLV30/STERAC1 ATOMS=(5 12 13 14 16 21)
M  V30 END COLLECTION
M  V30 END CTAB
M  END
>  <Molecule Name>


>  <status>
-

>  <cas>
155206-00-1

>  <name>
BIMATOPROST

>  <ID>
876

>  <Smiles>
CCNC(CCC/C=C\C[C@H]([C@@H](C[C@@H]1O)O)[C@@H]1/C=C/[C@@H](CCc1ccccc1)O)=O

$$$$

Actelion Java MolfileCreator 2.0

  0  0  0  0  0  0              0 V3000
M  V30 BEGIN CTAB
M  V30 COUNTS 14 14 0 0 0
M  V30 BEGIN ATOM
M  V30 1 O 3.4641 -0.5 0.0 0
M  V30 2 C 4.3301 0.0 0.0 0
M  V30 3 C 2.598 0.0 0.0 0
M  V30 4 C 5.1961 -0.4999 0.0 0
M  V30 5 C 4.3301 0.9999 0.0 0
M  V30 6 C 1.732 -0.5 0.0 0 CFG=1
M  V30 7 O 5.1961 -1.5 0.0 0
M  V30 8 C 6.0621 0.0 0.0 0
M  V30 9 C 5.1961 1.4999 0.0 0
M  V30 10 O 1.732 -1.5 0.0 0
M  V30 11 C 0.866 0.0 0.0 0
M  V30 12 C 6.0621 -2.0 0.0 0
M  V30 13 C 6.0621 1.0 0.0 0
M  V30 14 O 0.0 -0.5 0.0 0
M  V30 END ATOM
M  V30 BEGIN BOND
M  V30 1 1 1 2
M  V30 2 1 1 3
M  V30 3 2 2 4
M  V30 4 1 2 5
M  V30 5 1 6 3
M  V30 6 1 4 7
M  V30 7 1 4 8
M  V30 8 2 5 9
M  V30 9 1 6 10 CFG=1
M  V30 10 1 6 11
M  V30 11 1 7 12
M  V30 12 2 8 13
M  V30 13 1 11 14
M  V30 14 1 9 13
M  V30 END BOND
M  V30 BEGIN COLLECTION
M  V30 MDLV30/STERAC1 ATOMS=(1 6)
M  V30 END COLLECTION
M  V30 END CTAB
M  END
>  <Molecule Name>


>  <status>
-

>  <cas>
93-14-1

>  <name>
GUAIFENESIN

>  <ID>
877

>  <Smiles>
COc(cccc1)c1OCC(CO)O

$$$$
_c001
Actelion Java MolfileCreator 2.0

  0  0  0  0  0  0              0 V3000
M  V30 BEGIN CTAB
M  V30 COUNTS 41 45 0 0 0
M  V30 BEGIN ATOM
M  V30 1 O 6.0412 -0.7318 0.0 0
M  V30 2 C 5.0467 -0.8364 0.0 0
M  V30 3 O 4.3776 -0.0932 0.0 0
M  V30 4 O 4.5467 -1.7024 0.0 0
M  V30 5 C 3.4641 -0.5 0.0 0
M  V30 6 C 3.5686 -1.4945 0.0 0
M  V30 7 C 2.598 0.0 0.0 0
M  V30 8 C 2.8254 -2.1636 0.0 0
M  V30 9 O 1.732 -0.5 0.0 0
M  V30 10 C 0.866 0.0 0.0 0
M  V30 11 O 0.866 1.0 0.0 0
M  V30 12 C 0.0 -0.5 0.0 0
M  V30 13 N -0.9135 -0.0932 0.0 0
M  V30 14 C -0.1045 -1.4945 0.0 0
M  V30 15 C -1.5826 -0.8364 0.0 0
M  V30 16 C -1.1214 0.8848 0.0 0
M  V30 17 N -1.0826 -1.7024 0.0 0
M  V30 18 C 0.6386 -2.1636 0.0 0
M  V30 19 C -2.5771 -0.7318 0.0 0
M  V30 20 C -2.0725 1.1939 0.0 0
M  V30 21 O 1.3077 -1.4205 0.0 0
M  V30 22 C 1.3817 -2.8327 0.0 0
M  V30 23 C -0.0305 -2.9067 0.0 0
M  V30 24 C -3.1649 -1.5408 0.0 0
M  V30 25 C -2.2804 2.172 0.0 0
M  V30 26 C -2.8156 0.5247 0.0 0
M  V30 27 C -4.1595 -1.4363 0.0 0
M  V30 28 C -3.2314 2.481 0.0 0
M  V30 29 C -3.7667 0.8337 0.0 0
M  V30 30 C -3.9746 1.8119 0.0 0
M  V30 31 C -4.9256 2.1209 0.0 0
M  V30 32 C -5.1335 3.099 0.0 0
M  V30 33 C -5.6688 1.4518 0.0 0
M  V30 34 C -4.3904 3.7682 0.0 0
M  V30 35 C -6.0846 3.4081 0.0 0
M  V30 36 C -6.6198 1.7608 0.0 0
M  V30 37 N -3.4123 3.5603 0.0 0
M  V30 38 N -4.4949 4.7627 0.0 0
M  V30 39 C -6.8277 2.7389 0.0 0
M  V30 40 N -2.9123 4.4263 0.0 0
M  V30 41 N -3.5814 5.1694 0.0 0
M  V30 END ATOM
M  V30 BEGIN BOND
M  V30 1 2 1 2
M  V30 2 1 2 3
M  V30 3 1 2 4
M  V30 4 1 3 5
M  V30 5 1 4 6
M  V30 6 1 5 7
M  V30 7 1 6 8
M  V30 8 1 7 9
M  V30 9 1 9 10
M  V30 10 2 10 11
M  V30 11 1 10 12
M  V30 12 1 12 13
M  V30 13 2 12 14
M  V30 14 1 13 15
M  V30 15 1 13 16
M  V30 16 1 14 17
M  V30 17 1 14 18
M  V30 18 1 15 19
M  V30 19 1 16 20
M  V30 20 1 18 21
M  V30 21 1 18 22
M  V30 22 1 18 23
M  V30 23 1 19 24
M  V30 24 2 20 25
M  V30 25 1 20 26
M  V30 26 1 24 27
M  V30 27 1 25 28
M  V30 28 2 26 29
M  V30 29 2 28 30
M  V30 30 1 30 31
M  V30 31 2 31 32
M  V30 32 1 31 33
M  V30 33 1 32 34
M  V30 34 1 32 35
M  V30 35 2 33 36
M  V30 36 1 34 37
M  V30 37 2 34 38
M  V30 38 2 35 39
M  V30 39 2 37 40
M  V30 40 1 38 41
M  V30 41 2 5 6
M  V30 42 2 15 17
M  V30 43 1 29 30
M  V30 44 1 36 39
M  V30 45 1 40 41
M  V30 END BOND
M  V30 END CTAB
M  END
>  <Molecule Name>
_c001

>  <status>
-

>  <cas>
144689-63-4

>  <name>
OLMESARTAN MEDOXOMIL

>  <ID>
878

>  <Smiles>
CCCc1nc(C(C)(C)O)c(C(OCC(O2)=C(C)OC2=O)=O)n1Cc(cc1)ccc1-c(cccc1)c1-c1n[nH]nn1

$$$$

Actelion Java MolfileCreator 2.0

  0  0  0  0  0  0              0 V3000
M  V30 BEGIN CTAB
M  V30 COUNTS 28 30 0 0 0
M  V30 BEGIN ATOM
M  V30 1 O 6.0621 0.0 0.0 0
M  V30 2 C 5.1961 -0.5 0.0 0
M  V30 3 N 4.3301 0.0 0.0 0
M  V30 4 C 5.1961 -1.4999 0.0 0 CFG=1
M  V30 5 C 3.4641 -0.5 0.0 0
M  V30 6 O 4.3871 -2.0877 0.0 0
M  V30 7 C 6.0051 -2.0877 0.0 0
M  V30 8 C 2.598 0.0 0.0 0
M  V30 9 C 4.6961 -3.0388 0.0 0
M  V30 10 C 5.6961 -3.0388 0.0 0
M  V30 11 C 1.732 -0.5 0.0 0
M  V30 12 N 0.866 0.0 0.0 0
M  V30 13 C 0.866 1.0 0.0 0
M  V30 14 C 0.0 -0.5 0.0 0
M  V30 15 N 1.732 1.5 0.0 0
M  V30 16 N 0.0 1.4999 0.0 0
M  V30 17 C 1.732 2.5 0.0 0
M  V30 18 C 0.0 2.4999 0.0 0
M  V30 19 N 2.598 3.0 0.0 0
M  V30 20 C 0.866 3.0 0.0 0
M  V30 21 C -0.866 2.9999 0.0 0
M  V30 22 C 0.866 4.0 0.0 0
M  V30 23 C -0.866 3.9999 0.0 0
M  V30 24 C 0.0 4.4999 0.0 0
M  V30 25 O -1.732 4.4999 0.0 0
M  V30 26 O 0.0 5.5 0.0 0
M  V30 27 C -2.598 3.9999 0.0 0
M  V30 28 C -0.866 5.9999 0.0 0
M  V30 END ATOM
M  V30 BEGIN BOND
M  V30 1 2 1 2
M  V30 2 1 2 3
M  V30 3 1 4 2 CFG=3
M  V30 4 1 3 5
M  V30 5 1 4 6
M  V30 6 1 4 7
M  V30 7 1 5 8
M  V30 8 1 6 9
M  V30 9 1 7 10
M  V30 10 1 8 11
M  V30 11 1 11 12
M  V30 12 1 12 13
M  V30 13 1 12 14
M  V30 14 1 13 15
M  V30 15 2 13 16
M  V30 16 2 15 17
M  V30 17 1 16 18
M  V30 18 1 17 19
M  V30 19 1 17 20
M  V30 20 2 18 21
M  V30 21 2 20 22
M  V30 22 1 21 23
M  V30 23 1 22 24
M  V30 24 1 23 25
M  V30 25 1 24 26
M  V30 26 1 25 27
M  V30 27 1 26 28
M  V30 28 1 9 10
M  V30 29 1 18 20
M  V30 30 2 23 24
M  V30 END BOND
M  V30 BEGIN COLLECTION
M  V30 MDLV30/STERAC1 ATOMS=(1 4)
M  V30 END COLLECTION
M  V30 END CTAB
M  END
>  <Molecule Name>


>  <status>
-

>  <cas>
81403-80-7

>  <name>
ALFUZOSIN

>  <ID>
879

>  <Smiles>
CN(CCCNC(C1OCCC1)=O)c(nc(c1c2)N)nc1cc(OC)c2OC

$$$$

Actelion Java MolfileCreator 2.0

  0  0  0  0  0  0              0 V3000
M  V30 BEGIN CTAB
M  V30 COUNTS 39 42 0 0 0
M  V30 BEGIN ATOM
M  V30 1 S 7.7942 -5.25 0.0 0
M  V30 2 O 8.5442 -3.9509 0.0 0
M  V30 3 O 9.2942 -5.25 0.0 0
M  V30 4 N 6.4951 -4.5 0.0 0
M  V30 5 C 7.7942 -6.75 0.0 0
M  V30 6 C 6.4951 -3.0 0.0 0
M  V30 7 C 9.0932 -7.5 0.0 0
M  V30 8 C 6.4951 -7.5 0.0 0
M  V30 9 N 7.7942 -2.25 0.0 0
M  V30 10 C 5.1961 -2.25 0.0 0
M  V30 11 C 9.0932 -9.0 0.0 0
M  V30 12 C 6.4951 -9.0 0.0 0
M  V30 13 C 7.7942 -0.75 0.0 0
M  V30 14 O 3.8971 -3.0 0.0 0
M  V30 15 C 5.1961 -0.75 0.0 0
M  V30 16 C 7.7942 -9.75 0.0 0
M  V30 17 N 6.4951 0.0 0.0 0
M  V30 18 C 9.0932 0.0 0.0 0
M  V30 19 C 3.8971 -4.5 0.0 0
M  V30 20 O 3.8971 0.0 0.0 0
M  V30 21 C 7.7942 -11.25 0.0 0
M  V30 22 N 10.3923 -0.75 0.0 0
M  V30 23 N 9.0932 1.5 0.0 0
M  V30 24 C 2.598 -5.25 0.0 0
M  V30 25 C 5.1961 -5.25 0.0 0
M  V30 26 C 2.598 -0.75 0.0 0
M  V30 27 C 6.2942 -11.25 0.0 0
M  V30 28 C 7.7942 -12.75 0.0 0
M  V30 29 C 9.2942 -11.25 0.0 0
M  V30 30 C 11.6913 0.0 0.0 0
M  V30 31 C 10.3923 2.25 0.0 0
M  V30 32 O 1.299 -4.5 0.0 0
M  V30 33 C 2.598 -6.75 0.0 0
M  V30 34 C 5.1961 -6.75 0.0 0
M  V30 35 C 1.299 0.0 0.0 0
M  V30 36 C 11.6913 1.5 0.0 0
M  V30 37 C 0.0 -5.25 0.0 0
M  V30 38 C 3.8971 -7.5 0.0 0
M  V30 39 O 0.0 -0.75 0.0 0
M  V30 END ATOM
M  V30 BEGIN BOND
M  V30 1 2 1 2
M  V30 2 2 1 3
M  V30 3 1 1 4
M  V30 4 1 1 5
M  V30 5 1 4 6
M  V30 6 2 5 7
M  V30 7 1 5 8
M  V30 8 2 6 9
M  V30 9 1 6 10
M  V30 10 1 7 11
M  V30 11 2 8 12
M  V30 12 1 9 13
M  V30 13 1 10 14
M  V30 14 2 10 15
M  V30 15 2 11 16
M  V30 16 2 13 17
M  V30 17 1 13 18
M  V30 18 1 14 19
M  V30 19 1 15 20
M  V30 20 1 16 21
M  V30 21 2 18 22
M  V30 22 1 18 23
M  V30 23 2 19 24
M  V30 24 1 19 25
M  V30 25 1 20 26
M  V30 26 1 21 27
M  V30 27 1 21 28
M  V30 28 1 21 29
M  V30 29 1 22 30
M  V30 30 2 23 31
M  V30 31 1 24 32
M  V30 32 1 24 33
M  V30 33 2 25 34
M  V30 34 1 26 35
M  V30 35 2 30 36
M  V30 36 1 32 37
M  V30 37 2 33 38
M  V30 38 1 35 39
M  V30 39 1 12 16
M  V30 40 1 15 17
M  V30 41 1 31 36
M  V30 42 1 34 38
M  V30 END BOND
M  V30 END CTAB
M  END
>  <Molecule Name>


>  <status>
-

>  <cas>
147536-97-8

>  <name>
BOSENTAN

>  <ID>
880

>  <Smiles>
CC(C)(C)c(cc1)ccc1S(Nc1nc(-c2ncccn2)nc(OCCO)c1Oc(cccc1)c1OC)(=O)=O

$$$$
_c001
Actelion Java MolfileCreator 2.0

  0  0  0  0  0  0              0 V3000
M  V30 BEGIN CTAB
M  V30 COUNTS 56 59 0 0 0
M  V30 BEGIN ATOM
M  V30 1 Cl 1.732 -4.5 0.0 0
M  V30 2 C 1.732 -3.4999 0.0 0 CFG=1
M  V30 3 C 0.866 -2.9999 0.0 0 CFG=1
M  V30 4 C 2.598 -2.9999 0.0 0
M  V30 5 O 0.0 -3.5 0.0 0
M  V30 6 C 0.866 -1.9999 0.0 0
M  V30 7 C 2.598 -1.9999 0.0 0
M  V30 8 C -0.866 -3.0 0.0 0
M  V30 9 C 1.732 -1.4999 0.0 0 CFG=2
M  V30 10 C 1.732 -0.5 0.0 0
M  V30 11 C 0.866 0.0 0.0 0
M  V30 12 C 0.866 1.0 0.0 0 CFG=2
M  V30 13 C 0.0 -0.5 0.0 0
M  V30 14 O 1.1992 1.9428 0.0 0
M  V30 15 C -2.7311 11.1793 0.0 0 CFG=2
M  V30 16 C 0.6184 2.6645 0.0 0
M  V30 17 C -1.7772 10.8792 0.0 0 CFG=2
M  V30 18 C -3.4504 11.874 0.0 0
M  V30 19 O 0.5796 3.5965 0.0 0
M  V30 20 C -0.4448 2.1582 0.0 0 CFG=2
M  V30 21 O -0.995 11.5023 0.0 0
M  V30 22 C -1.6981 9.8824 0.0 0
M  V30 23 N -1.3476 2.5881 0.0 0
M  V30 24 C -0.3657 1.1613 0.0 0
M  V30 25 C -0.8638 9.331 0.0 0
M  V30 26 C -1.5647 3.5642 0.0 0
M  V30 27 C -2.1714 2.0211 0.0 0
M  V30 28 C -1.1894 0.5943 0.0 0
M  V30 29 O -1.0444 8.3848 0.0 0
M  V30 30 C 0.0842 9.6489 0.0 0 CFG=2
M  V30 31 O -0.8768 4.29 0.0 0
M  V30 32 C -2.5511 3.7286 0.0 0
M  V30 33 C -2.0923 1.0243 0.0 0
M  V30 34 C 0.7341 8.8889 0.0 0
M  V30 35 C 0.3508 10.6127 0.0 0
M  V30 36 O -3.1344 2.9163 0.0 0
M  V30 37 C -3.0027 4.5744 0.0 0 CFG=2
M  V30 38 C 0.273 8.0016 0.0 0
M  V30 39 C 1.3188 10.8637 0.0 0
M  V30 40 O -2.6695 5.5172 0.0 0
M  V30 41 O -3.4361 3.6732 0.0 0
M  V30 42 C -3.9858 4.3915 0.0 0 CFG=2
M  V30 43 C -0.697 8.0741 0.0 0
M  V30 44 C 0.7507 7.1231 0.0 0
M  V30 45 C -3.3194 6.2772 0.0 0 CFG=1
M  V30 46 C -4.6358 5.1515 0.0 0
M  V30 47 C -4.319 3.4486 0.0 0
M  V30 48 C -1.6349 7.2916 0.0 0 CFG=2
M  V30 49 C -3.2022 7.2288 0.0 0 CFG=1
M  V30 50 C -4.3026 6.0943 0.0 0 CFG=1
M  V30 51 C -2.3409 7.7369 0.0 0
M  V30 52 C -1.361 6.3355 0.0 0
M  V30 53 O -4.0386 7.777 0.0 0
M  V30 54 O -4.9525 6.8543 0.0 0
M  V30 55 C -3.982 8.7754 0.0 0
M  V30 56 C -5.9357 6.6714 0.0 0
M  V30 END ATOM
M  V30 BEGIN BOND
M  V30 1 1 2 1 CFG=1
M  V30 2 1 3 2
M  V30 3 1 2 4
M  V30 4 1 3 5 CFG=1
M  V30 5 1 3 6
M  V30 6 1 4 7
M  V30 7 1 5 8
M  V30 8 1 9 6
M  V30 9 1 9 10 CFG=1
M  V30 10 2 10 11
M  V30 11 1 12 11 CFG=1
M  V30 12 1 11 13
M  V30 13 1 12 14
M  V30 14 1 15 12
M  V30 15 1 14 16
M  V30 16 1 17 15
M  V30 17 1 15 18 CFG=1
M  V30 18 2 16 19
M  V30 19 1 20 16
M  V30 20 1 17 21 CFG=3
M  V30 21 1 17 22
M  V30 22 1 20 23 CFG=1
M  V30 23 1 20 24
M  V30 24 1 22 25
M  V30 25 1 23 26
M  V30 26 1 23 27
M  V30 27 1 24 28
M  V30 28 2 25 29
M  V30 29 1 30 25
M  V30 30 2 26 31
M  V30 31 1 26 32
M  V30 32 1 27 33
M  V30 33 1 30 34
M  V30 34 1 30 35 CFG=1
M  V30 35 2 32 36
M  V30 36 1 37 32
M  V30 37 2 34 38
M  V30 38 1 35 39
M  V30 39 1 37 40
M  V30 40 1 37 41 CFG=1
M  V30 41 1 42 37
M  V30 42 1 38 43
M  V30 43 1 38 44
M  V30 44 1 45 40 CFG=3
M  V30 45 1 42 46
M  V30 46 1 42 47 CFG=1
M  V30 47 1 48 43
M  V30 48 1 49 45
M  V30 49 1 50 45
M  V30 50 1 48 51
M  V30 51 1 48 52 CFG=1
M  V30 52 1 49 53 CFG=3
M  V30 53 1 50 54 CFG=1
M  V30 54 1 53 55
M  V30 55 1 54 56
M  V30 56 1 7 9
M  V30 57 1 28 33
M  V30 58 1 46 50
M  V30 59 1 49 51
M  V30 END BOND
M  V30 BEGIN COLLECTION
M  V30 MDLV30/STERAC1 ATOMS=(14 2 3 9 12 15 17 20 30 37 42 45 48 49 50)
M  V30 END COLLECTION
M  V30 END CTAB
M  END
>  <Molecule Name>
_c001

>  <status>
-

>  <cas>
137071-32-0

>  <name>
PIMECROLIMUS

>  <ID>
881

>  <Smiles>
CC[C@@H](/C=C(/C)\C[C@@H](C)C[C@H]([C@@H]([C@@H](C[C@@H]1C)OC)O[C@@]1(C(C(N(CCCC1)[C@H]1C(O[C@H]([C@@H](C)[C@@H](C1)O)/C(/C)=C/[C@@H](CC[C@H]2Cl)C[C@@H]2OC)=O)=O)=O)O)OC)C1=O

$$$$

Actelion Java MolfileCreator 2.0

  0  0  0  0  0  0              0 V3000
M  V30 BEGIN CTAB
M  V30 COUNTS 25 26 0 0 0
M  V30 BEGIN ATOM
M  V30 1 O 11.0241 0.8716 0.0 0
M  V30 2 C 10.355 0.1284 0.0 0
M  V30 3 N 10.664 -0.8225 0.0 0
M  V30 4 C 9.3769 0.3364 0.0 0
M  V30 5 C 9.9949 -1.5657 0.0 0
M  V30 6 N 8.8769 1.2024 0.0 0
M  V30 7 C 8.7077 -0.4067 0.0 0
M  V30 8 N 9.0167 -1.3577 0.0 0
M  V30 9 N 10.3039 -2.5167 0.0 0
M  V30 10 C 7.8987 0.9945 0.0 0
M  V30 11 N 7.7942 0.0 0.0 0
M  V30 12 C 6.9282 -0.5 0.0 0
M  V30 13 O 6.0621 0.0 0.0 0
M  V30 14 C 5.1961 -0.5 0.0 0 CFG=2
M  V30 15 C 4.3301 0.0 0.0 0
M  V30 16 C 5.1961 -1.5 0.0 0
M  V30 17 O 3.4641 -0.5 0.0 0
M  V30 18 O 6.0621 -2.0 0.0 0
M  V30 19 C 2.598 0.0 0.0 0
M  V30 20 O 2.598 1.0 0.0 0
M  V30 21 C 1.732 -0.5 0.0 0 CFG=1
M  V30 22 N 1.732 -1.5 0.0 0
M  V30 23 C 0.866 0.0 0.0 0
M  V30 24 C 0.866 1.0 0.0 0
M  V30 25 C 0.0 -0.5 0.0 0
M  V30 END ATOM
M  V30 BEGIN BOND
M  V30 1 2 1 2
M  V30 2 1 2 3
M  V30 3 1 2 4
M  V30 4 2 3 5
M  V30 5 1 4 6
M  V30 6 2 4 7
M  V30 7 1 5 8
M  V30 8 1 5 9
M  V30 9 2 6 10
M  V30 10 1 7 11
M  V30 11 1 11 12
M  V30 12 1 12 13
M  V30 13 1 14 13 CFG=1
M  V30 14 1 14 15
M  V30 15 1 14 16
M  V30 16 1 15 17
M  V30 17 1 16 18
M  V30 18 1 17 19
M  V30 19 2 19 20
M  V30 20 1 21 19
M  V30 21 1 21 22 CFG=1
M  V30 22 1 21 23
M  V30 23 1 23 24
M  V30 24 1 23 25
M  V30 25 1 7 8
M  V30 26 1 10 11
M  V30 END BOND
M  V30 BEGIN COLLECTION
M  V30 MDLV30/STERAC1 ATOMS=(2 14 21)
M  V30 END COLLECTION
M  V30 END CTAB
M  END
>  <Molecule Name>


>  <status>
-

>  <cas>
175865-60-8

>  <name>
VALGANCICLOVIR

>  <ID>
882

>  <Smiles>
CC(C)[C@@H](C(OC[C@H](CO)OCn1c(NC(N)=NC2=O)c2nc1)=O)N

$$$$

Actelion Java MolfileCreator 2.0

  0  0  0  0  0  0              0 V3000
M  V30 BEGIN CTAB
M  V30 COUNTS 37 41 0 0 0
M  V30 BEGIN ATOM
M  V30 1 F 2.4641 -1.4999 0.0 0
M  V30 2 C 3.4641 -1.4999 0.0 0
M  V30 3 F 3.4641 -2.4999 0.0 0
M  V30 4 F 4.4641 -1.4999 0.0 0
M  V30 5 C 3.4641 -0.4999 0.0 0
M  V30 6 C 2.598 0.0 0.0 0
M  V30 7 C 4.3301 0.0 0.0 0
M  V30 8 N 1.732 -0.5 0.0 0
M  V30 9 C 2.598 1.0 0.0 0
M  V30 10 C 4.3301 1.0 0.0 0
M  V30 11 C 0.866 0.0 0.0 0
M  V30 12 C 3.4641 1.5 0.0 0
M  V30 13 O 0.866 1.0 0.0 0
M  V30 14 C 0.0 -0.5 0.0 0 CFG=1
M  V30 15 C 3.4641 2.5 0.0 0
M  V30 16 C -0.9135 -0.0932 0.0 0 CFG=1
M  V30 17 C -0.1045 -1.4945 0.0 0
M  V30 18 F 4.4641 2.5 0.0 0
M  V30 19 F 3.4641 3.5 0.0 0
M  V30 20 F 2.4641 2.5 0.0 0
M  V30 21 C -1.5826 -0.8364 0.0 0 CFG=2
M  V30 22 C -1.2225 0.8577 0.0 0
M  V30 23 C -0.1704 0.5758 0.0 0
M  V30 24 C -1.0826 -1.7024 0.0 0
M  V30 25 C -2.5608 -0.6284 0.0 0 CFG=2
M  V30 26 C -2.2007 1.0657 0.0 0
M  V30 27 C -2.8698 0.3225 0.0 0 CFG=1
M  V30 28 C -3.2299 -1.3716 0.0 0
M  V30 29 C -3.8479 0.5304 0.0 0 CFG=2
M  V30 30 C -4.2081 -1.1637 0.0 0
M  V30 31 C -4.157 1.4815 0.0 0
M  V30 32 C -4.5171 -0.2126 0.0 0 CFG=2
M  V30 33 C -3.1788 1.2736 0.0 0
M  V30 34 C -5.1351 1.6894 0.0 0
M  V30 35 N -5.4952 -0.0047 0.0 0
M  V30 36 C -5.8042 0.9462 0.0 0
M  V30 37 O -6.7824 1.1542 0.0 0
M  V30 END ATOM
M  V30 BEGIN BOND
M  V30 1 1 1 2
M  V30 2 1 2 3
M  V30 3 1 2 4
M  V30 4 1 2 5
M  V30 5 2 5 6
M  V30 6 1 5 7
M  V30 7 1 6 8
M  V30 8 1 6 9
M  V30 9 2 7 10
M  V30 10 1 8 11
M  V30 11 2 9 12
M  V30 12 2 11 13
M  V30 13 1 14 11 CFG=3
M  V30 14 1 12 15
M  V30 15 1 16 14
M  V30 16 1 14 17
M  V30 17 1 15 18
M  V30 18 1 15 19
M  V30 19 1 15 20
M  V30 20 1 21 16
M  V30 21 1 16 22
M  V30 22 1 16 23 CFG=3
M  V30 23 1 17 24
M  V30 24 1 25 21
M  V30 25 1 22 26
M  V30 26 1 27 25
M  V30 27 1 25 28 CFG=1
M  V30 28 1 29 27
M  V30 29 1 28 30
M  V30 30 1 29 31
M  V30 31 1 32 29
M  V30 32 1 29 33 CFG=3
M  V30 33 2 31 34
M  V30 34 1 32 35 CFG=3
M  V30 35 1 34 36
M  V30 36 2 36 37
M  V30 37 1 10 12
M  V30 38 1 21 24 CFG=3
M  V30 39 1 27 26 CFG=3
M  V30 40 1 30 32
M  V30 41 1 35 36
M  V30 END BOND
M  V30 BEGIN COLLECTION
M  V30 MDLV30/STERAC1 ATOMS=(7 14 16 21 25 27 29 32)
M  V30 END COLLECTION
M  V30 END CTAB
M  END
>  <Molecule Name>


>  <status>
-

>  <cas>
164656-23-9

>  <name>
DUTASTERIDE

>  <ID>
883

>  <Smiles>
C[C@@](CC1)([C@H](CC2)[C@@H](CC[C@@H]3N4)[C@@H]1[C@]3(C)C=CC4=O)[C@@H]2C(Nc1c(C(F)(F)F)ccc(C(F)(F)F)c1)=O

$$$$

Actelion Java MolfileCreator 2.0

  0  0  0  0  0  0              0 V3000
M  V30 BEGIN CTAB
M  V30 COUNTS 101 106 0 0 0
M  V30 BEGIN ATOM
M  V30 1 Cl 18.1865 3.0 0.0 0
M  V30 2 C 19.0525 2.5 0.0 0
M  V30 3 C 19.9185 3.0 0.0 0
M  V30 4 C 19.0525 1.5 0.0 0
M  V30 5 C 20.7846 2.5 0.0 0
M  V30 6 C 19.9185 0.9999 0.0 0
M  V30 7 C 20.7846 1.5 0.0 0
M  V30 8 C 21.6506 0.9999 0.0 0
M  V30 9 C 21.6506 0.0 0.0 0 CFG=1
M  V30 10 N 22.5166 -0.5 0.0 0
M  V30 11 C 20.7846 -0.5 0.0 0
M  V30 12 C 23.3826 0.0 0.0 0
M  V30 13 O 20.7846 -1.4999 0.0 0
M  V30 14 N 19.9185 0.0 0.0 0
M  V30 15 O 23.3826 0.9999 0.0 0
M  V30 16 C 24.2487 -0.5 0.0 0 CFG=2
M  V30 17 C 19.0525 -0.5 0.0 0 CFG=1
M  V30 18 N 25.1147 0.0 0.0 0
M  V30 19 C 24.2487 -1.5 0.0 0
M  V30 20 C 18.1865 0.0 0.0 0
M  V30 21 C 19.0525 -1.5 0.0 0
M  V30 22 C 25.1147 0.9999 0.0 0
M  V30 23 C 25.1147 -2.0 0.0 0
M  V30 24 O 18.1865 0.9999 0.0 0
M  V30 25 N 17.3205 -0.5 0.0 0
M  V30 26 C 18.1865 -2.0 0.0 0
M  V30 27 O 25.9807 1.5 0.0 0
M  V30 28 C 24.2487 1.4999 0.0 0
M  V30 29 C 25.9807 -1.5 0.0 0
M  V30 30 C 25.1147 -3.0 0.0 0
M  V30 31 C 16.4544 0.0 0.0 0 CFG=2
M  V30 32 C 18.1865 -3.0 0.0 0
M  V30 33 C 17.3205 -1.5 0.0 0
M  V30 34 C 26.8467 -2.0 0.0 0
M  V30 35 C 25.9807 -3.5 0.0 0
M  V30 36 C 15.5884 -0.5 0.0 0
M  V30 37 C 16.4544 0.9999 0.0 0
M  V30 38 N 17.3205 -3.5 0.0 0
M  V30 39 C 16.4544 -2.0 0.0 0
M  V30 40 C 26.8467 -3.0 0.0 0
M  V30 41 C 27.7128 -1.4999 0.0 0
M  V30 42 O 15.5884 -1.5 0.0 0
M  V30 43 N 14.7224 0.0 0.0 0
M  V30 44 O 15.5884 1.5 0.0 0
M  V30 45 C 16.4544 -3.0 0.0 0
M  V30 46 C 27.7128 -3.5 0.0 0
M  V30 47 C 28.5788 -2.0 0.0 0
M  V30 48 C 13.8564 -0.5 0.0 0 CFG=2
M  V30 49 C 14.7224 1.0 0.0 0
M  V30 50 C 28.5788 -2.9999 0.0 0
M  V30 51 C 12.9903 0.0 0.0 0
M  V30 52 C 13.8564 -1.4999 0.0 0
M  V30 53 O 12.9903 1.0 0.0 0
M  V30 54 N 12.1243 -0.5 0.0 0
M  V30 55 C 12.9903 -1.9999 0.0 0
M  V30 56 C 11.2583 0.0 0.0 0 CFG=1
M  V30 57 C 12.9903 -2.9999 0.0 0
M  V30 58 C 12.1243 -1.5 0.0 0
M  V30 59 C 10.3923 -0.5 0.0 0
M  V30 60 C 11.2583 1.0 0.0 0
M  V30 61 C 12.1243 -3.5 0.0 0
M  V30 62 C 11.2583 -2.0 0.0 0
M  V30 63 O 10.3923 -1.4999 0.0 0
M  V30 64 N 9.5262 0.0 0.0 0
M  V30 65 C 10.3923 1.5 0.0 0
M  V30 66 C 11.2583 -3.0 0.0 0
M  V30 67 C 8.6602 -0.5 0.0 0 CFG=2
M  V30 68 O 9.5262 1.0 0.0 0
M  V30 69 N 10.3923 2.5 0.0 0
M  V30 70 O 10.3923 -3.5 0.0 0
M  V30 71 C 7.7942 0.0 0.0 0
M  V30 72 C 8.6602 -1.4999 0.0 0
M  V30 73 O 7.7942 1.0 0.0 0
M  V30 74 N 6.9282 -0.4999 0.0 0
M  V30 75 C 7.7942 -2.0 0.0 0
M  V30 76 C 6.0621 0.0 0.0 0 CFG=2
M  V30 77 C 6.9282 -1.4999 0.0 0
M  V30 78 C 7.7942 -3.0 0.0 0
M  V30 79 C 6.0621 1.0 0.0 0
M  V30 80 C 5.1961 -0.5 0.0 0
M  V30 81 O 6.9282 1.4999 0.0 0
M  V30 82 N 5.1961 1.5 0.0 0
M  V30 83 C 4.3301 0.0 0.0 0
M  V30 84 C 5.0916 2.4945 0.0 0 CFG=2
M  V30 85 C 4.2826 1.0932 0.0 0
M  V30 86 C 3.4641 -0.5 0.0 0
M  V30 87 C 5.8347 3.1636 0.0 0
M  V30 88 C 4.1134 2.7024 0.0 0
M  V30 89 C 3.6134 1.8364 0.0 0
M  V30 90 C 2.598 0.0 0.0 0
M  V30 91 O 5.6268 4.1418 0.0 0
M  V30 92 N 6.7858 2.8546 0.0 0
M  V30 93 N 1.732 -0.5 0.0 0
M  V30 94 C 7.5289 3.5237 0.0 0 CFG=1
M  V30 95 C 0.866 0.0 0.0 0
M  V30 96 C 8.48 3.2147 0.0 0
M  V30 97 C 7.321 4.5019 0.0 0
M  V30 98 C 0.866 1.0 0.0 0
M  V30 99 C 0.0 -0.5 0.0 0
M  V30 100 O 8.6879 2.2366 0.0 0
M  V30 101 N 9.2231 3.8838 0.0 0
M  V30 END ATOM
M  V30 BEGIN BOND
M  V30 1 1 1 2
M  V30 2 2 2 3
M  V30 3 1 2 4
M  V30 4 1 3 5
M  V30 5 2 4 6
M  V30 6 2 5 7
M  V30 7 1 7 8
M  V30 8 1 9 8
M  V30 9 1 9 10 CFG=1
M  V30 10 1 9 11
M  V30 11 1 10 12
M  V30 12 2 11 13
M  V30 13 1 11 14
M  V30 14 2 12 15
M  V30 15 1 16 12
M  V30 16 1 17 14 CFG=3
M  V30 17 1 16 18 CFG=3
M  V30 18 1 16 19
M  V30 19 1 17 20
M  V30 20 1 17 21
M  V30 21 1 18 22
M  V30 22 1 19 23
M  V30 23 2 20 24
M  V30 24 1 20 25
M  V30 25 1 21 26
M  V30 26 2 22 27
M  V30 27 1 22 28
M  V30 28 2 23 29
M  V30 29 1 23 30
M  V30 30 1 31 25 CFG=3
M  V30 31 2 26 32
M  V30 32 1 26 33
M  V30 33 1 29 34
M  V30 34 2 30 35
M  V30 35 1 31 36
M  V30 36 1 31 37
M  V30 37 1 32 38
M  V30 38 2 33 39
M  V30 39 1 34 40
M  V30 40 2 34 41
M  V30 41 2 36 42
M  V30 42 1 36 43
M  V30 43 1 37 44
M  V30 44 2 38 45
M  V30 45 2 40 46
M  V30 46 1 41 47
M  V30 47 1 48 43 CFG=1
M  V30 48 1 43 49
M  V30 49 1 46 50
M  V30 50 1 48 51
M  V30 51 1 48 52
M  V30 52 2 51 53
M  V30 53 1 51 54
M  V30 54 1 52 55
M  V30 55 1 56 54 CFG=1
M  V30 56 2 55 57
M  V30 57 1 55 58
M  V30 58 1 56 59
M  V30 59 1 56 60
M  V30 60 1 57 61
M  V30 61 2 58 62
M  V30 62 2 59 63
M  V30 63 1 59 64
M  V30 64 1 60 65
M  V30 65 2 61 66
M  V30 66 1 67 64 CFG=1
M  V30 67 2 65 68
M  V30 68 1 65 69
M  V30 69 1 66 70
M  V30 70 1 67 71
M  V30 71 1 67 72
M  V30 72 2 71 73
M  V30 73 1 71 74
M  V30 74 1 72 75
M  V30 75 1 76 74 CFG=1
M  V30 76 1 75 77
M  V30 77 1 75 78
M  V30 78 1 76 79
M  V30 79 1 76 80
M  V30 80 2 79 81
M  V30 81 1 79 82
M  V30 82 1 80 83
M  V30 83 1 84 82
M  V30 84 1 82 85
M  V30 85 1 83 86
M  V30 86 1 84 87 CFG=1
M  V30 87 1 84 88
M  V30 88 1 85 89
M  V30 89 1 86 90
M  V30 90 2 87 91
M  V30 91 1 87 92
M  V30 92 1 90 93
M  V30 93 1 94 92 CFG=3
M  V30 94 1 93 95
M  V30 95 1 94 96
M  V30 96 1 94 97
M  V30 97 1 95 98
M  V30 98 1 95 99
M  V30 99 2 96 100
M  V30 100 1 96 101
M  V30 101 1 6 7
M  V30 102 1 35 40
M  V30 103 1 39 45
M  V30 104 2 47 50
M  V30 105 1 62 66
M  V30 106 1 88 89
M  V30 END BOND
M  V30 BEGIN COLLECTION
M  V30 MDLV30/STERAC1 ATOMS=(10 9 16 17 31 48 56 67 76 84 94)
M  V30 END COLLECTION
M  V30 END CTAB
M  END
>  <Molecule Name>


>  <status>
DISCONTINUED

>  <cas>
183552-38-7

>  <name>
ABARELIX

>  <ID>
884

>  <Smiles>
CC(C)C[C@@H](C(N[C@@H](CCCCNC(C)C)C(N(CCC1)[C@@H]1C(N[C@H](C)C(N)=O)=O)=O)=O)NC([C@@H](CC(N)=O)NC([C@H](Cc(cc1)ccc1O)N(C)C([C@H](CO)NC([C@@H](Cc1cnccc1)NC([C@@H](Cc(cc1)ccc1Cl)NC([C@@H](Cc1cc2ccccc2cc1)NC(C)=O)=O)=O)=O)=O)=O)=O

$$$$

Actelion Java MolfileCreator 2.0

  0  0  0  0  0  0              0 V3000
M  V30 BEGIN CTAB
M  V30 COUNTS 33 36 0 0 0
M  V30 BEGIN ATOM
M  V30 1 S 5.1752 0.2318 0.0 0
M  V30 2 C 5.582 -0.6816 0.0 0
M  V30 3 C 4.1807 0.3364 0.0 0 CFG=2
M  V30 4 C 6.5601 -0.8895 0.0 0
M  V30 5 C 5.082 -1.5476 0.0 0 CFG=1
M  V30 6 C 3.6807 1.2024 0.0 0
M  V30 7 C 3.5116 -0.4067 0.0 0
M  V30 8 N 6.6646 -1.884 0.0 0
M  V30 9 C 7.3033 -0.2204 0.0 0
M  V30 10 C 5.7511 -2.2908 0.0 0 CFG=1
M  V30 11 C 4.0874 -1.6522 0.0 0
M  V30 12 N 2.7026 0.9945 0.0 0
M  V30 13 C 2.598 0.0 0.0 0 CFG=2
M  V30 14 C 7.0714 -2.7976 0.0 0
M  V30 15 O 8.2543 -0.5294 0.0 0
M  V30 16 O 7.0953 0.7577 0.0 0 CHG=-1
M  V30 17 C 6.1578 -3.2043 0.0 0 CFG=2
M  V30 18 C 1.732 -0.5 0.0 0
M  V30 19 O 8.005 -3.156 0.0 0
M  V30 20 C 5.7995 -4.1379 0.0 0 CFG=2
M  V30 21 O 1.732 -1.5 0.0 0
M  V30 22 N 0.866 0.0 0.0 0
M  V30 23 O 4.8118 -4.2943 0.0 0
M  V30 24 C 6.4288 -4.9151 0.0 0
M  V30 25 C 0.0 -0.5 0.0 0
M  V30 26 C -0.866 0.0 0.0 0
M  V30 27 C 0.0 -1.4999 0.0 0
M  V30 28 C -1.732 -0.4999 0.0 0
M  V30 29 C -0.866 -1.9999 0.0 0
M  V30 30 C -2.598 0.0 0.0 0
M  V30 31 C -1.732 -1.4999 0.0 0
M  V30 32 O -2.598 1.0 0.0 0
M  V30 33 O -3.4641 -0.4999 0.0 0 CHG=-1
M  V30 END ATOM
M  V30 BEGIN BOND
M  V30 1 1 1 2
M  V30 2 1 3 1 CFG=1
M  V30 3 2 2 4
M  V30 4 1 5 2
M  V30 5 1 3 6
M  V30 6 1 3 7
M  V30 7 1 4 8
M  V30 8 1 4 9
M  V30 9 1 10 5
M  V30 10 1 5 11 CFG=1
M  V30 11 1 6 12
M  V30 12 1 13 7
M  V30 13 1 8 14
M  V30 14 2 9 15
M  V30 15 1 9 16
M  V30 16 1 17 10
M  V30 17 1 13 18 CFG=1
M  V30 18 2 14 19
M  V30 19 1 20 17
M  V30 20 2 18 21
M  V30 21 1 18 22
M  V30 22 1 20 23 CFG=1
M  V30 23 1 20 24
M  V30 24 1 22 25
M  V30 25 2 25 26
M  V30 26 1 25 27
M  V30 27 1 26 28
M  V30 28 2 27 29
M  V30 29 1 28 30
M  V30 30 2 28 31
M  V30 31 2 30 32
M  V30 32 1 30 33
M  V30 33 1 10 8 CFG=1
M  V30 34 1 12 13
M  V30 35 1 17 14 CFG=3
M  V30 36 1 29 31
M  V30 END BOND
M  V30 BEGIN COLLECTION
M  V30 MDLV30/STERAC1 ATOMS=(6 3 5 10 13 17 20)
M  V30 END COLLECTION
M  V30 END CTAB
M  END
>  <Molecule Name>


>  <status>
-

>  <cas>
153832-46-3

>  <name>
ERTAPENEM

>  <ID>
885

>  <Smiles>
C[C@H]([C@H]([C@@H]([C@H]1C)N2C(C([O-])=O)=C1S[C@@H](C1)CN[C@@H]1C(Nc1cc(C([O-])=O)ccc1)=O)C2=O)O

$$$$

Actelion Java MolfileCreator 2.0

  0  0  0  0  0  0              0 V3000
M  V30 BEGIN CTAB
M  V30 COUNTS 22 24 0 0 0
M  V30 BEGIN ATOM
M  V30 1 S 3.4641 1.4999 0.0 0
M  V30 2 O 3.9641 0.6339 0.0 0
M  V30 3 O 2.9641 2.366 0.0 0
M  V30 4 N 4.3301 1.9999 0.0 0
M  V30 5 C 2.598 0.9999 0.0 0
M  V30 6 C 1.732 1.4999 0.0 0
M  V30 7 C 2.598 0.0 0.0 0
M  V30 8 C 0.866 0.9999 0.0 0
M  V30 9 C 1.732 -0.5 0.0 0
M  V30 10 C 0.866 0.0 0.0 0
M  V30 11 C 0.0 -0.5 0.0 0
M  V30 12 C -0.9135 -0.0932 0.0 0
M  V30 13 C -0.1045 -1.4945 0.0 0
M  V30 14 N -1.5826 -0.8364 0.0 0
M  V30 15 C -1.1214 0.8848 0.0 0
M  V30 16 O -1.0826 -1.7024 0.0 0
M  V30 17 C 0.6386 -2.1636 0.0 0
M  V30 18 C -0.3783 1.554 0.0 0
M  V30 19 C -2.0725 1.1939 0.0 0
M  V30 20 C -0.5862 2.5321 0.0 0
M  V30 21 C -2.2804 2.172 0.0 0
M  V30 22 C -1.5372 2.8411 0.0 0
M  V30 END ATOM
M  V30 BEGIN BOND
M  V30 1 2 1 2
M  V30 2 2 1 3
M  V30 3 1 1 4
M  V30 4 1 1 5
M  V30 5 2 5 6
M  V30 6 1 5 7
M  V30 7 1 6 8
M  V30 8 2 7 9
M  V30 9 2 8 10
M  V30 10 1 10 11
M  V30 11 1 11 12
M  V30 12 2 11 13
M  V30 13 2 12 14
M  V30 14 1 12 15
M  V30 15 1 13 16
M  V30 16 1 13 17
M  V30 17 2 15 18
M  V30 18 1 15 19
M  V30 19 1 18 20
M  V30 20 2 19 21
M  V30 21 2 20 22
M  V30 22 1 9 10
M  V30 23 1 14 16
M  V30 24 1 21 22
M  V30 END BOND
M  V30 END CTAB
M  END
>  <Molecule Name>


>  <status>
DISCONTINUED

>  <cas>
181695-72-7

>  <name>
VALDECOXIB

>  <ID>
886

>  <Smiles>
Cc(onc1-c2ccccc2)c1-c(cc1)ccc1S(N)(=O)=O

$$$$

Actelion Java MolfileCreator 2.0

  0  0  0  0  0  0              0 V3000
M  V30 BEGIN CTAB
M  V30 COUNTS 41 44 0 0 0
M  V30 BEGIN ATOM
M  V30 1 S 12.9903 -0.75 0.0 0 CFG=2
M  V30 2 O 12.9903 -2.25 0.0 0
M  V30 3 C 14.2894 0.0 0.0 0
M  V30 4 C 11.6913 0.0 0.0 0
M  V30 5 C 15.5884 -0.75 0.0 0
M  V30 6 C 10.3923 -0.75 0.0 0
M  V30 7 C 16.8875 0.0 0.0 0
M  V30 8 C 9.0932 0.0 0.0 0
M  V30 9 C 18.1865 -0.75 0.0 0
M  V30 10 C 7.7942 -0.75 0.0 0
M  V30 11 F 17.4365 -2.049 0.0 0
M  V30 12 F 18.9365 -2.049 0.0 0
M  V30 13 C 19.4855 0.0 0.0 0
M  V30 14 C 6.4951 0.0 0.0 0
M  V30 15 F 18.7355 1.299 0.0 0
M  V30 16 F 20.7846 0.75 0.0 0
M  V30 17 F 20.2355 -1.299 0.0 0
M  V30 18 C 5.1961 -0.75 0.0 0
M  V30 19 C 3.8971 0.0 0.0 0
M  V30 20 C 2.598 -0.75 0.0 0
M  V30 21 C 1.299 0.0 0.0 0
M  V30 22 C 0.0 -0.75 0.0 0 CFG=1
M  V30 23 C 0.0 -2.25 0.0 0 CFG=2
M  V30 24 C -1.299 0.0 0.0 0
M  V30 25 C -1.299 -3.0 0.0 0 CFG=1
M  V30 26 C 1.299 -3.0 0.0 0 CFG=1
M  V30 27 C -2.598 -0.75 0.0 0
M  V30 28 C -2.598 -2.25 0.0 0
M  V30 29 C -1.299 -4.5 0.0 0
M  V30 30 C 1.299 -4.5 0.0 0 CFG=2
M  V30 31 C 2.7256 -2.5364 0.0 0
M  V30 32 C -3.8971 0.0 0.0 0
M  V30 33 C -3.8971 -3.0 0.0 0
M  V30 34 C 0.0 -5.25 0.0 0
M  V30 35 C 2.7256 -4.9635 0.0 0 CFG=2
M  V30 36 C 1.4558 -5.9917 0.0 0
M  V30 37 C 3.6073 -3.75 0.0 0
M  V30 38 C -5.1961 -0.75 0.0 0
M  V30 39 C -5.1961 -2.25 0.0 0
M  V30 40 O 3.1891 -6.3901 0.0 0
M  V30 41 O -6.4951 0.0 0.0 0
M  V30 END ATOM
M  V30 BEGIN BOND
M  V30 1 2 1 2
M  V30 2 1 1 3 CFG=1
M  V30 3 1 1 4
M  V30 4 1 3 5
M  V30 5 1 4 6
M  V30 6 1 5 7
M  V30 7 1 6 8
M  V30 8 1 7 9
M  V30 9 1 8 10
M  V30 10 1 9 11
M  V30 11 1 9 12
M  V30 12 1 9 13
M  V30 13 1 10 14
M  V30 14 1 13 15
M  V30 15 1 13 16
M  V30 16 1 13 17
M  V30 17 1 14 18
M  V30 18 1 18 19
M  V30 19 1 19 20
M  V30 20 1 20 21
M  V30 21 1 22 21 CFG=1
M  V30 22 1 23 22 CFG=1
M  V30 23 1 22 24
M  V30 24 1 25 23
M  V30 25 1 26 23
M  V30 26 1 24 27
M  V30 27 1 25 28
M  V30 28 1 25 29 CFG=3
M  V30 29 1 30 26
M  V30 30 1 26 31 CFG=3
M  V30 31 1 27 32
M  V30 32 1 28 33
M  V30 33 1 29 34
M  V30 34 1 35 30
M  V30 35 1 30 36 CFG=3
M  V30 36 1 31 37
M  V30 37 2 32 38
M  V30 38 2 33 39
M  V30 39 1 35 40 CFG=3
M  V30 40 1 38 41
M  V30 41 2 27 28
M  V30 42 1 30 34
M  V30 43 1 35 37
M  V30 44 1 38 39
M  V30 END BOND
M  V30 BEGIN COLLECTION
M  V30 MDLV30/STERAC1 ATOMS=(7 1 22 23 25 26 30 35)
M  V30 END COLLECTION
M  V30 END CTAB
M  END
>  <Molecule Name>


>  <status>
-

>  <cas>
129453-61-8

>  <name>
FULVESTRANT

>  <ID>
887

>  <Smiles>
C[C@](CC1)([C@@H](CC2)[C@H]([C@H](CCCCCCCCC[S@](CCCC(C(F)(F)F)(F)F)=O)C3)[C@H]1c(cc1)c3cc1O)[C@H]2O

$$$$

Actelion Java MolfileCreator 2.0

  0  0  0  0  0  0              0 V3000
M  V30 BEGIN CTAB
M  V30 COUNTS 91 95 0 0 0
M  V30 BEGIN ATOM
M  V30 1 S -5.1967 -6.7507 0.0 0
M  V30 2 O -3.6965 -6.7507 0.0 0
M  V30 3 O -6.6969 -6.7507 0.0 0
M  V30 4 O -5.1967 -5.2505 0.0 0
M  V30 5 O -5.1967 -8.2509 0.0 0
M  V30 6 C -3.8975 -4.5005 0.0 0 CFG=2
M  V30 7 C -3.8975 -3.0003 0.0 0 CFG=2
M  V30 8 C -2.5983 -5.2505 0.0 0 CFG=2
M  V30 9 O -2.5983 -2.2502 0.0 0
M  V30 10 O -5.1967 -2.2502 0.0 0
M  V30 11 O -2.5983 -6.7507 0.0 0
M  V30 12 C -1.2991 -4.5005 0.0 0 CFG=2
M  V30 13 C -1.2991 -3.0003 0.0 0 CFG=1
M  V30 14 C -5.1967 -0.75 0.0 0 CFG=2
M  V30 15 O 0.0 -5.2505 0.0 0
M  V30 16 C 0.0 -2.2502 0.0 0
M  V30 17 C -3.8975 0.0 0.0 0 CFG=1
M  V30 18 C -6.4959 0.0 0.0 0 CFG=1
M  V30 19 C 0.0 -6.7507 0.0 0 CFG=2
M  V30 20 O 0.0 -0.75 0.0 0
M  V30 21 O 1.2991 -3.0003 0.0 0 CHG=-1
M  V30 22 O -2.5983 -0.75 0.0 0
M  V30 23 C -3.8975 1.5001 0.0 0 CFG=2
M  V30 24 O -6.4959 1.5001 0.0 0
M  V30 25 C -7.7951 -0.75 0.0 0
M  V30 26 O -1.2991 -7.5008 0.0 0
M  V30 27 C 1.2991 -7.5008 0.0 0 CFG=1
M  V30 28 N -2.5983 2.2502 0.0 0
M  V30 29 C -5.1967 2.2502 0.0 0 CFG=1
M  V30 30 O -7.7951 -2.2502 0.0 0
M  V30 31 C -1.2991 -9.001 0.0 0 CFG=2
M  V30 32 N 2.5983 -6.7507 0.0 0
M  V30 33 C 1.2991 -9.001 0.0 0 CFG=1
M  V30 34 S -1.2991 1.5001 0.0 0
M  V30 35 O -5.1967 3.7504 0.0 0
M  V30 36 S -9.0943 -3.0003 0.0 0
M  V30 37 C 0.0 -9.7511 0.0 0 CFG=1
M  V30 38 C -2.5983 -9.7511 0.0 0
M  V30 39 S 2.5983 -5.2505 0.0 0
M  V30 40 O 2.5983 -9.7511 0.0 0
M  V30 41 O -0.5491 2.7993 0.0 0
M  V30 42 O -2.0492 0.2009 0.0 0
M  V30 43 O 0.0 0.75 0.0 0
M  V30 44 C -6.4959 4.5005 0.0 0
M  V30 45 O -8.3442 -4.2995 0.0 0
M  V30 46 O -9.8443 -1.7011 0.0 0
M  V30 47 O -10.3934 -3.7504 0.0 0
M  V30 48 O 0.0 -11.2512 0.0 0
M  V30 49 O -2.5983 -11.2512 0.0 0
M  V30 50 O 4.0985 -5.2505 0.0 0
M  V30 51 O 1.0982 -5.2505 0.0 0
M  V30 52 O 2.5983 -3.7504 0.0 0
M  V30 53 S 3.8975 -9.001 0.0 0
M  V30 54 C 1.2991 -12.0013 0.0 0 CFG=1
M  V30 55 S -3.8975 -12.0013 0.0 0
M  V30 56 O 4.5646 -10.3265 0.0 0
M  V30 57 O 3.1474 -7.7018 0.0 0
M  V30 58 O 5.1967 -8.2509 0.0 0
M  V30 59 O 2.5983 -11.2512 0.0 0
M  V30 60 C 1.2991 -13.5015 0.0 0 CFG=1
M  V30 61 O -3.1474 -13.3005 0.0 0
M  V30 62 O -4.6476 -10.7021 0.0 0
M  V30 63 O -5.1967 -12.7514 0.0 0
M  V30 64 C 3.8975 -12.0013 0.0 0 CFG=1
M  V30 65 O 0.0 -14.2516 0.0 0
M  V30 66 C 2.5983 -14.2516 0.0 0 CFG=1
M  V30 67 C 5.1967 -11.2512 0.0 0
M  V30 68 C 3.8975 -13.5015 0.0 0 CFG=1
M  V30 69 O 2.5983 -15.7517 0.0 0
M  V30 70 O 5.1967 -9.7511 0.0 0
M  V30 71 O 6.4959 -12.0013 0.0 0 CHG=-1
M  V30 72 O 5.1967 -14.2516 0.0 0
M  V30 73 C 5.1967 -15.7517 0.0 0 CFG=2
M  V30 74 O 3.8975 -16.5018 0.0 0
M  V30 75 C 6.4959 -16.5018 0.0 0 CFG=1
M  V30 76 C 3.8975 -18.002 0.0 0 CFG=2
M  V30 77 N 7.7951 -15.7517 0.0 0
M  V30 78 C 6.4959 -18.002 0.0 0 CFG=1
M  V30 79 C 5.1967 -18.7521 0.0 0 CFG=1
M  V30 80 C 2.5983 -18.7521 0.0 0
M  V30 81 S 9.0943 -16.5018 0.0 0
M  V30 82 O 7.7951 -18.7521 0.0 0
M  V30 83 O 5.1967 -20.2523 0.0 0
M  V30 84 O 1.2991 -18.002 0.0 0
M  V30 85 O 9.8443 -15.2026 0.0 0
M  V30 86 O 8.3442 -17.801 0.0 0
M  V30 87 O 10.3934 -17.2519 0.0 0
M  V30 88 S 0.0 -18.7521 0.0 0
M  V30 89 O -0.75 -17.4529 0.0 0
M  V30 90 O 0.75 -20.0513 0.0 0
M  V30 91 O -1.2991 -19.5022 0.0 0
M  V30 END ATOM
M  V30 BEGIN BOND
M  V30 1 2 1 2
M  V30 2 2 1 3
M  V30 3 1 1 4
M  V30 4 1 1 5
M  V30 5 1 6 4 CFG=3
M  V30 6 1 7 6
M  V30 7 1 8 6
M  V30 8 1 7 9
M  V30 9 1 7 10 CFG=1
M  V30 10 1 8 11 CFG=1
M  V30 11 1 12 8
M  V30 12 1 13 9
M  V30 13 1 14 10 CFG=1
M  V30 14 1 12 15 CFG=3
M  V30 15 1 13 16 CFG=3
M  V30 16 1 17 14
M  V30 17 1 18 14
M  V30 18 1 19 15 CFG=1
M  V30 19 2 16 20
M  V30 20 1 16 21
M  V30 21 1 17 22 CFG=3
M  V30 22 1 23 17
M  V30 23 1 18 24
M  V30 24 1 18 25 CFG=3
M  V30 25 1 19 26
M  V30 26 1 27 19
M  V30 27 1 23 28 CFG=1
M  V30 28 1 29 23
M  V30 29 1 25 30
M  V30 30 1 31 26
M  V30 31 1 27 32 CFG=1
M  V30 32 1 33 27
M  V30 33 1 28 34
M  V30 34 1 29 35 CFG=1
M  V30 35 1 30 36
M  V30 36 1 37 31
M  V30 37 1 31 38 CFG=3
M  V30 38 1 32 39
M  V30 39 1 33 40 CFG=3
M  V30 40 2 34 41
M  V30 41 2 34 42
M  V30 42 1 34 43
M  V30 43 1 35 44
M  V30 44 2 36 45
M  V30 45 2 36 46
M  V30 46 1 36 47
M  V30 47 1 37 48 CFG=1
M  V30 48 1 38 49
M  V30 49 2 39 50
M  V30 50 2 39 51
M  V30 51 1 39 52
M  V30 52 1 40 53
M  V30 53 1 54 48 CFG=1
M  V30 54 1 49 55
M  V30 55 2 53 56
M  V30 56 2 53 57
M  V30 57 1 53 58
M  V30 58 1 54 59
M  V30 59 1 60 54
M  V30 60 2 55 61
M  V30 61 2 55 62
M  V30 62 1 55 63
M  V30 63 1 64 59
M  V30 64 1 60 65 CFG=3
M  V30 65 1 66 60
M  V30 66 1 64 67 CFG=1
M  V30 67 1 68 64
M  V30 68 1 66 69 CFG=1
M  V30 69 2 67 70
M  V30 70 1 67 71
M  V30 71 1 68 72 CFG=3
M  V30 72 1 73 72 CFG=1
M  V30 73 1 73 74
M  V30 74 1 75 73
M  V30 75 1 76 74
M  V30 76 1 75 77 CFG=1
M  V30 77 1 78 75
M  V30 78 1 79 76
M  V30 79 1 76 80 CFG=3
M  V30 80 1 77 81
M  V30 81 1 78 82 CFG=3
M  V30 82 1 79 83 CFG=1
M  V30 83 1 80 84
M  V30 84 2 81 85
M  V30 85 2 81 86
M  V30 86 1 81 87
M  V30 87 1 84 88
M  V30 88 2 88 89
M  V30 89 2 88 90
M  V30 90 1 88 91
M  V30 91 1 12 13
M  V30 92 1 24 29
M  V30 93 1 33 37
M  V30 94 1 66 68
M  V30 95 1 78 79
M  V30 END BOND
M  V30 BEGIN COLLECTION
M  V30 MDLV30/STERAC1 ATOMS=(25 6 7 8 12 13 14 17 18 19 23 27 29 31 33 37 54 60 64 66 68 73 75 76 78 79)
M  V30 END COLLECTION
M  V30 END CTAB
M  END
>  <Molecule Name>


>  <status>
-

>  <cas>
104993-28-4

>  <name>
FONDAPARINUX

>  <ID>
888

>  <Smiles>
CO[C@@H]([C@H]([C@@H]1O)NS(O)(=O)=O)O[C@@H](COS(O)(=O)=O)[C@@H]1O[C@H]([C@H]([C@@H]([C@H]1O[C@@H]([C@H]([C@@H]2OS(O)(=O)=O)NS(O)(=O)=O)O[C@@H](COS(O)(=O)=O)[C@@H]2O[C@H]([C@H]([C@@H]([C@H]2O[C@@H]([C@H]([C@@H]3O)NS(O)(=O)=O)O[C@@H](COS(O)(=O)=O)[C@@H]3O)O)O)O[C@H]2C([O-])=O)O)OS(O)(=O)=O)O[C@@H]1C([O-])=O

$$$$

Actelion Java MolfileCreator 2.0

  0  0  0  0  0  0              0 V3000
M  V30 BEGIN CTAB
M  V30 COUNTS 15 15 0 0 0
M  V30 BEGIN ATOM
M  V30 1 O 9.0932 -3.0 0.0 0
M  V30 2 C 7.7942 -2.2499 0.0 0 CFG=2
M  V30 3 C 7.7942 -0.75 0.0 0 CFG=1
M  V30 4 C 6.4951 -2.9999 0.0 0 CFG=2
M  V30 5 O 9.0932 0.0 0.0 0
M  V30 6 C 6.4951 0.0 0.0 0 CFG=1
M  V30 7 O 6.4951 -4.4999 0.0 0
M  V30 8 C 5.1961 -2.25 0.0 0
M  V30 9 N 5.1961 -0.75 0.0 0
M  V30 10 C 6.4951 1.5 0.0 0
M  V30 11 C 3.8971 0.0 0.0 0
M  V30 12 O 5.1961 2.25 0.0 0
M  V30 13 C 2.598 -0.75 0.0 0
M  V30 14 C 1.299 0.0 0.0 0
M  V30 15 C 0.0 -0.75 0.0 0
M  V30 END ATOM
M  V30 BEGIN BOND
M  V30 1 1 2 1 CFG=1
M  V30 2 1 3 2
M  V30 3 1 4 2
M  V30 4 1 3 5 CFG=3
M  V30 5 1 6 3
M  V30 6 1 4 7 CFG=3
M  V30 7 1 4 8
M  V30 8 1 6 9
M  V30 9 1 6 10 CFG=1
M  V30 10 1 9 11
M  V30 11 1 10 12
M  V30 12 1 11 13
M  V30 13 1 13 14
M  V30 14 1 14 15
M  V30 15 1 8 9
M  V30 END BOND
M  V30 BEGIN COLLECTION
M  V30 MDLV30/STERAC1 ATOMS=(4 2 3 4 6)
M  V30 END COLLECTION
M  V30 END CTAB
M  END
>  <Molecule Name>


>  <status>
-

>  <cas>
72599-27-0

>  <name>
MIGLUSTAT

>  <ID>
889

>  <Smiles>
CCCCN(C[C@H]([C@@H]1O)O)[C@@H](CO)[C@@H]1O

$$$$

Actelion Java MolfileCreator 2.0

  0  0  0  0  0  0              0 V3000
M  V30 BEGIN CTAB
M  V30 COUNTS 27 30 0 0 0
M  V30 BEGIN ATOM
M  V30 1 F 4.3301 0.0 0.0 0
M  V30 2 C 3.4641 -0.5 0.0 0
M  V30 3 C 2.598 0.0 0.0 0
M  V30 4 C 3.4641 -1.4999 0.0 0
M  V30 5 N 2.598 1.0 0.0 0
M  V30 6 C 1.732 -0.5 0.0 0
M  V30 7 C 2.598 -2.0 0.0 0
M  V30 8 C 3.4641 1.4999 0.0 0
M  V30 9 C 1.732 1.5 0.0 0
M  V30 10 O 0.866 0.0 0.0 0
M  V30 11 C 1.732 -1.5 0.0 0
M  V30 12 C 2.598 -3.0 0.0 0
M  V30 13 C 3.4641 2.4999 0.0 0 CFG=1
M  V30 14 C 1.732 2.5 0.0 0
M  V30 15 C 0.866 0.9999 0.0 0
M  V30 16 N 0.866 -1.9999 0.0 0
M  V30 17 O 3.4641 -3.5 0.0 0
M  V30 18 C 1.732 -3.4999 0.0 0
M  V30 19 N 2.598 3.0 0.0 0
M  V30 20 C 4.3301 2.9999 0.0 0
M  V30 21 C 0.866 -2.9999 0.0 0
M  V30 22 C 0.0 -1.5 0.0 0
M  V30 23 C 1.732 -4.5 0.0 0
M  V30 24 C -0.5 -0.6339 0.0 0
M  V30 25 C -1.0 -1.4999 0.0 0
M  V30 26 O 0.866 -5.0 0.0 0
M  V30 27 O 2.598 -5.0 0.0 0 CHG=-1
M  V30 END ATOM
M  V30 BEGIN BOND
M  V30 1 1 1 2
M  V30 2 2 2 3
M  V30 3 1 2 4
M  V30 4 1 3 5
M  V30 5 1 3 6
M  V30 6 2 4 7
M  V30 7 1 5 8
M  V30 8 1 5 9
M  V30 9 1 6 10
M  V30 10 2 6 11
M  V30 11 1 7 12
M  V30 12 1 13 8
M  V30 13 1 9 14
M  V30 14 1 10 15
M  V30 15 1 11 16
M  V30 16 2 12 17
M  V30 17 1 12 18
M  V30 18 1 13 19
M  V30 19 1 13 20 CFG=1
M  V30 20 1 16 21
M  V30 21 1 16 22
M  V30 22 1 18 23
M  V30 23 1 22 24
M  V30 24 1 22 25
M  V30 25 2 23 26
M  V30 26 1 23 27
M  V30 27 1 7 11
M  V30 28 1 14 19
M  V30 29 2 18 21
M  V30 30 1 24 25
M  V30 END BOND
M  V30 BEGIN COLLECTION
M  V30 MDLV30/STERAC1 ATOMS=(1 13)
M  V30 END COLLECTION
M  V30 END CTAB
M  END
>  <Molecule Name>


>  <status>
-

>  <cas>
112811-59-3

>  <name>
GATIFLOXACIN

>  <ID>
890

>  <Smiles>
CC(C1)NCCN1c(c(OC)c(c1c2)N(C3CC3)C=C(C([O-])=O)C1=O)c2F

$$$$

Actelion Java MolfileCreator 2.0

  0  0  0  0  0  0              0 V3000
M  V30 BEGIN CTAB
M  V30 COUNTS 57 62 0 0 0
M  V30 BEGIN ATOM
M  V30 1 O 8.3308 6.0987 0.0 0
M  V30 2 C 7.8308 5.2327 0.0 0
M  V30 3 N 8.6241 4.624 0.0 0
M  V30 4 C 6.9069 5.6154 0.0 0
M  V30 5 C 8.9744 3.2898 0.0 0
M  V30 6 C 5.9155 5.7459 0.0 0
M  V30 7 C 7.1657 6.5813 0.0 0
M  V30 8 C 9.8544 2.8147 0.0 0
M  V30 9 C 8.123 2.7653 0.0 0
M  V30 10 C 4.924 5.6154 0.0 0
M  V30 11 O 10.7058 3.3392 0.0 0
M  V30 12 C 9.8829 1.8151 0.0 0
M  V30 13 N 7.1636 3.0471 0.0 0
M  V30 14 C 8.1516 1.7657 0.0 0
M  V30 15 C 4.1307 5.0066 0.0 0
M  V30 16 C 10.8121 0.8737 0.0 0
M  V30 17 C 9.0315 1.2906 0.0 0
M  V30 18 C 6.5991 2.2216 0.0 0
M  V30 19 C 6.7309 3.9486 0.0 0
M  V30 20 N 7.2097 1.4297 0.0 0
M  V30 21 C 3.2068 4.624 0.0 0 CFG=2
M  V30 22 O 11.7614 1.188 0.0 0
M  V30 23 C 10.6732 -0.1165 0.0 0
M  V30 24 C 8.958 0.124 0.0 0
M  V30 25 C 5.602 2.2977 0.0 0
M  V30 26 C 5.7338 4.0247 0.0 0
M  V30 27 C 2.598 3.8306 0.0 0 CFG=1
M  V30 28 C 2.598 5.4173 0.0 0
M  V30 29 C 9.7461 -0.4913 0.0 0
M  V30 30 C 11.4614 -0.7319 0.0 0
M  V30 31 C 8.1291 -0.4353 0.0 0
M  V30 32 C 5.1694 3.1993 0.0 0
M  V30 33 O 1.732 4.3306 0.0 0
M  V30 34 C 2.2153 2.9067 0.0 0 CFG=1
M  V30 35 O 9.4043 -1.4311 0.0 0
M  V30 36 O 7.1893 -0.0935 0.0 0
M  V30 37 C 8.4049 -1.3965 0.0 0 CFG=1
M  V30 38 C 4.1723 3.2754 0.0 0
M  V30 39 C 2.0848 1.9153 0.0 0 CFG=2
M  V30 40 C 1.2494 3.1655 0.0 0
M  V30 41 O 6.9069 -1.7847 0.0 0
M  V30 42 C 8.5142 -2.3905 0.0 0
M  V30 43 O 1.0848 1.9153 0.0 0
M  V30 44 C 2.2153 0.9238 0.0 0 CFG=1
M  V30 45 C 5.9155 -1.6542 0.0 0
M  V30 46 C 2.598 0.0 0.0 0 CFG=1
M  V30 47 C 1.2494 0.665 0.0 0
M  V30 48 C 4.924 -1.7847 0.0 0
M  V30 49 O 1.732 -0.5 0.0 0
M  V30 50 C 3.2068 -0.7933 0.0 0 CFG=2
M  V30 51 C 4.0001 -1.4021 0.0 0 CFG=2
M  V30 52 C 1.732 -1.5 0.0 0
M  V30 53 C 2.5288 -1.4499 0.0 0
M  V30 54 O 3.5001 -2.2681 0.0 0
M  V30 55 O 2.598 -2.0 0.0 0
M  V30 56 C 0.866 -2.0 0.0 0
M  V30 57 C 4.0001 -3.1341 0.0 0
M  V30 END ATOM
M  V30 BEGIN BOND
M  V30 1 2 1 2
M  V30 2 1 2 3
M  V30 3 1 2 4
M  V30 4 1 3 5
M  V30 5 2 4 6
M  V30 6 1 4 7
M  V30 7 2 5 8
M  V30 8 1 5 9
M  V30 9 1 6 10
M  V30 10 1 8 11
M  V30 11 1 8 12
M  V30 12 1 9 13
M  V30 13 2 9 14
M  V30 14 2 10 15
M  V30 15 2 12 16
M  V30 16 1 12 17
M  V30 17 1 13 18
M  V30 18 1 13 19
M  V30 19 1 14 20
M  V30 20 1 21 15
M  V30 21 1 16 22
M  V30 22 1 16 23
M  V30 23 2 17 24
M  V30 24 1 18 25
M  V30 25 2 19 26
M  V30 26 1 27 21
M  V30 27 1 21 28 CFG=3
M  V30 28 2 23 29
M  V30 29 1 23 30
M  V30 30 1 24 31
M  V30 31 2 25 32
M  V30 32 1 27 33 CFG=3
M  V30 33 1 34 27
M  V30 34 1 29 35
M  V30 35 2 31 36
M  V30 36 1 37 31
M  V30 37 1 32 38
M  V30 38 1 39 34
M  V30 39 1 34 40 CFG=1
M  V30 40 1 37 41
M  V30 41 1 37 42 CFG=3
M  V30 42 1 39 43 CFG=1
M  V30 43 1 44 39
M  V30 44 1 41 45
M  V30 45 1 46 44
M  V30 46 1 44 47 CFG=1
M  V30 47 2 45 48
M  V30 48 1 46 49 CFG=3
M  V30 49 1 50 46
M  V30 50 1 51 48
M  V30 51 1 49 52
M  V30 52 1 50 53 CFG=3
M  V30 53 1 51 54 CFG=1
M  V30 54 2 52 55
M  V30 55 1 52 56
M  V30 56 1 54 57
M  V30 57 1 14 17
M  V30 58 2 18 20
M  V30 59 1 24 29
M  V30 60 1 26 32
M  V30 61 1 35 37
M  V30 62 1 50 51
M  V30 END BOND
M  V30 BEGIN COLLECTION
M  V30 MDLV30/STERAC1 ATOMS=(9 21 27 34 37 39 44 46 50 51)
M  V30 END COLLECTION
M  V30 END CTAB
M  END
>  <Molecule Name>


>  <status>
-

>  <cas>
80621-81-4

>  <name>
RIFAXIMIN

>  <ID>
891

>  <Smiles>
C[C@H]([C@@H]([C@H](C)[C@H]([C@@H](C)[C@@H](/C=C/O[C@@](C)(C(c1c2c3c4n(ccc(C)c5)c5n3)=O)Oc1c(C)c(O)c2c(O)c4NC(/C(/C)=C\C=C\[C@H]1C)=O)OC)OC(C)=O)O)[C@@H]1O

$$$$

Actelion Java MolfileCreator 2.0

  0  0  0  0  0  0              0 V3000
M  V30 BEGIN CTAB
M  V30 COUNTS 33 34 0 0 0
M  V30 BEGIN ATOM
M  V30 1 S 10.3923 -1.5 0.0 0
M  V30 2 O 10.8923 -2.366 0.0 0
M  V30 3 O 9.8923 -0.6339 0.0 0
M  V30 4 N 9.5262 -2.0 0.0 0
M  V30 5 C 11.2583 -1.0 0.0 0
M  V30 6 C 8.6602 -1.5 0.0 0
M  V30 7 C 9.5262 -3.0 0.0 0
M  V30 8 N 8.6602 -0.5 0.0 0
M  V30 9 N 7.7942 -2.0 0.0 0
M  V30 10 C 7.7942 0.0 0.0 0
M  V30 11 C 6.9282 -1.5 0.0 0
M  V30 12 C 7.7942 0.9999 0.0 0
M  V30 13 C 6.9282 -0.5 0.0 0
M  V30 14 C 6.0621 -1.9999 0.0 0
M  V30 15 C 8.6602 1.4999 0.0 0
M  V30 16 C 6.9282 1.4999 0.0 0
M  V30 17 C 6.0621 0.0 0.0 0
M  V30 18 C 5.1961 -1.4999 0.0 0
M  V30 19 C 6.0621 -2.9999 0.0 0
M  V30 20 C 8.6602 2.4999 0.0 0
M  V30 21 C 6.9282 2.5 0.0 0
M  V30 22 C 5.1961 -0.5 0.0 0
M  V30 23 C 7.7942 2.9999 0.0 0
M  V30 24 C 4.3301 0.0 0.0 0 CFG=1
M  V30 25 F 7.7942 3.9999 0.0 0
M  V30 26 O 4.3301 1.0 0.0 0
M  V30 27 C 3.4641 -0.5 0.0 0
M  V30 28 C 2.598 0.0 0.0 0 CFG=1
M  V30 29 O 2.598 1.0 0.0 0
M  V30 30 C 1.732 -0.5 0.0 0
M  V30 31 C 0.866 0.0 0.0 0
M  V30 32 O 0.866 1.0 0.0 0
M  V30 33 O 0.0 -0.5 0.0 0 CHG=-1
M  V30 END ATOM
M  V30 BEGIN BOND
M  V30 1 2 1 2
M  V30 2 2 1 3
M  V30 3 1 1 4
M  V30 4 1 1 5
M  V30 5 1 4 6
M  V30 6 1 4 7
M  V30 7 2 6 8
M  V30 8 1 6 9
M  V30 9 1 8 10
M  V30 10 2 9 11
M  V30 11 1 10 12
M  V30 12 2 10 13
M  V30 13 1 11 14
M  V30 14 2 12 15
M  V30 15 1 12 16
M  V30 16 1 13 17
M  V30 17 1 14 18
M  V30 18 1 14 19
M  V30 19 1 15 20
M  V30 20 2 16 21
M  V30 21 2 17 22
M  V30 22 2 20 23
M  V30 23 1 24 22
M  V30 24 1 23 25
M  V30 25 1 24 26 CFG=3
M  V30 26 1 24 27
M  V30 27 1 28 27
M  V30 28 1 28 29 CFG=3
M  V30 29 1 28 30
M  V30 30 1 30 31
M  V30 31 2 31 32
M  V30 32 1 31 33
M  V30 33 1 11 13
M  V30 34 1 21 23
M  V30 END BOND
M  V30 BEGIN COLLECTION
M  V30 MDLV30/STERAC1 ATOMS=(2 24 28)
M  V30 END COLLECTION
M  V30 END CTAB
M  END
>  <Molecule Name>


>  <status>
-

>  <cas>
287714-41-4

>  <name>
ROSUVASTATIN

>  <ID>
892

>  <Smiles>
CC(C)c1nc(N(C)S(C)(=O)=O)nc(-c(cc2)ccc2F)c1/C=C/[C@H](C[C@H](CC([O-])=O)O)O

$$$$

Actelion Java MolfileCreator 2.0

  0  0  0  0  0  0              0 V3000
M  V30 BEGIN CTAB
M  V30 COUNTS 29 34 0 0 0
M  V30 BEGIN ATOM
M  V30 1 O 0.866 0.0 0.0 0
M  V30 2 C 0.0 -0.5 0.0 0
M  V30 3 N -0.866 0.0 0.0 0
M  V30 4 C 0.0 -1.4999 0.0 0 CFG=2
M  V30 5 C -1.732 -0.4999 0.0 0
M  V30 6 C -0.866 1.0 0.0 0
M  V30 7 N -0.866 -1.9999 0.0 0
M  V30 8 C 0.866 -1.9999 0.0 0
M  V30 9 C -1.732 -1.4999 0.0 0
M  V30 10 C -0.866 -2.9999 0.0 0 CFG=2
M  V30 11 C 0.866 -3.0 0.0 0
M  V30 12 O -2.598 -1.9999 0.0 0
M  V30 13 C -1.732 -3.4999 0.0 0
M  V30 14 C 0.0 -3.4999 0.0 0
M  V30 15 C 1.6091 -3.6691 0.0 0
M  V30 16 C -2.598 -2.9999 0.0 0
M  V30 17 C -1.732 -4.4999 0.0 0
M  V30 18 N 0.2079 -4.4781 0.0 0
M  V30 19 C 1.2024 -4.5826 0.0 0
M  V30 20 C 2.6036 -3.5646 0.0 0
M  V30 21 C -3.4641 -3.4999 0.0 0
M  V30 22 C -2.598 -4.9999 0.0 0
M  V30 23 C 1.7902 -5.3916 0.0 0
M  V30 24 C 3.1914 -4.3736 0.0 0
M  V30 25 O -4.4151 -3.1909 0.0 0
M  V30 26 C -3.4641 -4.4999 0.0 0
M  V30 27 C 2.7847 -5.2871 0.0 0
M  V30 28 C -5.0029 -3.9999 0.0 0
M  V30 29 O -4.4151 -4.809 0.0 0
M  V30 END ATOM
M  V30 BEGIN BOND
M  V30 1 2 1 2
M  V30 2 1 2 3
M  V30 3 1 4 2
M  V30 4 1 3 5
M  V30 5 1 3 6
M  V30 6 1 4 7 CFG=1
M  V30 7 1 4 8
M  V30 8 1 5 9
M  V30 9 1 10 7
M  V30 10 1 8 11
M  V30 11 2 9 12
M  V30 12 1 10 13 CFG=1
M  V30 13 1 10 14
M  V30 14 1 11 15
M  V30 15 2 13 16
M  V30 16 1 13 17
M  V30 17 1 14 18
M  V30 18 2 15 19
M  V30 19 1 15 20
M  V30 20 1 16 21
M  V30 21 2 17 22
M  V30 22 1 19 23
M  V30 23 2 20 24
M  V30 24 1 21 25
M  V30 25 2 21 26
M  V30 26 2 23 27
M  V30 27 1 25 28
M  V30 28 1 26 29
M  V30 29 1 7 9
M  V30 30 2 11 14
M  V30 31 1 18 19
M  V30 32 1 22 26
M  V30 33 1 24 27
M  V30 34 1 28 29
M  V30 END BOND
M  V30 BEGIN COLLECTION
M  V30 MDLV30/STERAC1 ATOMS=(2 4 10)
M  V30 END COLLECTION
M  V30 END CTAB
M  END
>  <Molecule Name>


>  <status>
-

>  <cas>
171596-29-5

>  <name>
TADALAFIL

>  <ID>
893

>  <Smiles>
CN(CC(N([C@@H]1Cc2c3[nH]c4c2cccc4)[C@@H]3c(cc2)cc3c2OCO3)=O)C1=O

$$$$

Actelion Java MolfileCreator 2.0

  0  0  0  0  0  0              0 V3000
M  V30 BEGIN CTAB
M  V30 COUNTS 22 26 0 0 0
M  V30 BEGIN ATOM
M  V30 1 O 0.866 0.0 0.0 0
M  V30 2 C 0.0 -0.5 0.0 0
M  V30 3 N -0.866 0.0 0.0 0
M  V30 4 C 0.0 -1.4999 0.0 0
M  V30 5 C -0.866 1.0 0.0 0 CFG=2
M  V30 6 C -1.732 -0.4999 0.0 0
M  V30 7 C -0.866 -1.9999 0.0 0
M  V30 8 C 0.866 -1.9999 0.0 0
M  V30 9 C 0.0 1.4999 0.0 0 CFG=2
M  V30 10 C -1.732 1.5 0.0 0
M  V30 11 C -1.732 -1.4999 0.0 0 CFG=1
M  V30 12 C -0.866 -2.9999 0.0 0
M  V30 13 C 0.866 -3.0 0.0 0
M  V30 14 C -0.1261 2.5312 0.0 0
M  V30 15 C 0.433 3.2499 0.0 0
M  V30 16 N -1.732 2.5 0.0 0 CFG=1
M  V30 17 C -2.598 -1.9999 0.0 0
M  V30 18 C 0.0 -3.4999 0.0 0
M  V30 19 C -1.732 -3.4999 0.0 0
M  V30 20 C -0.7759 2.9063 0.0 0
M  V30 21 C -0.433 3.75 0.0 0
M  V30 22 C -2.598 -2.9999 0.0 0
M  V30 END ATOM
M  V30 BEGIN BOND
M  V30 1 2 1 2
M  V30 2 1 2 3
M  V30 3 1 2 4
M  V30 4 1 5 3 CFG=1
M  V30 5 1 3 6
M  V30 6 2 4 7
M  V30 7 1 4 8
M  V30 8 1 9 5
M  V30 9 1 5 10
M  V30 10 1 11 6 CFG=1
M  V30 11 1 7 12
M  V30 12 2 8 13
M  V30 13 1 9 14 CFG=1
M  V30 14 1 9 15
M  V30 15 1 16 10 CFG=3
M  V30 16 1 11 17
M  V30 17 2 12 18
M  V30 18 1 12 19
M  V30 19 1 14 20
M  V30 20 1 15 21
M  V30 21 1 17 22
M  V30 22 1 7 11
M  V30 23 1 13 18
M  V30 24 1 16 20
M  V30 25 1 16 21
M  V30 26 1 19 22
M  V30 END BOND
M  V30 BEGIN COLLECTION
M  V30 MDLV30/STEABS ATOMS=(2 9 16)
M  V30 MDLV30/STERAC1 ATOMS=(2 5 11)
M  V30 END COLLECTION
M  V30 END CTAB
M  END
>  <Molecule Name>


>  <status>
-

>  <cas>
135729-61-2

>  <name>
PALONOSETRON

>  <ID>
894

>  <Smiles>
O=C(c1c([C@@H](CCC2)C3)c2ccc1)N3[C@@H]1[C@H](CC2)CCN2C1

$$$$

Actelion Java MolfileCreator 2.0

  0  0  0  0  0  0              0 V3000
M  V30 BEGIN CTAB
M  V30 COUNTS 31 34 0 0 0
M  V30 BEGIN ATOM
M  V30 1 Cl 3.4641 -1.4999 0.0 0
M  V30 2 C 4.3301 -1.9999 0.0 0
M  V30 3 C 4.3301 -2.9999 0.0 0
M  V30 4 C 5.1961 -1.5 0.0 0
M  V30 5 F 3.4641 -3.4999 0.0 0
M  V30 6 C 5.1961 -3.5 0.0 0
M  V30 7 C 6.0621 -2.0 0.0 0
M  V30 8 C 6.0621 -3.0 0.0 0
M  V30 9 N 6.9282 -1.5 0.0 0
M  V30 10 C 6.9282 -0.5 0.0 0
M  V30 11 N 7.7942 0.0 0.0 0
M  V30 12 C 6.0621 0.0 0.0 0
M  V30 13 C 7.7942 0.9999 0.0 0
M  V30 14 C 6.0621 0.9999 0.0 0
M  V30 15 C 5.1961 -0.5 0.0 0
M  V30 16 N 6.9282 1.4999 0.0 0
M  V30 17 C 5.1961 1.4999 0.0 0
M  V30 18 C 4.3301 0.0 0.0 0
M  V30 19 C 4.3301 0.9999 0.0 0
M  V30 20 O 3.4641 -0.5 0.0 0
M  V30 21 O 3.4641 1.4999 0.0 0
M  V30 22 C 2.598 0.0 0.0 0
M  V30 23 C 2.598 0.9999 0.0 0
M  V30 24 C 1.732 -0.5 0.0 0
M  V30 25 C 0.866 0.0 0.0 0
M  V30 26 N 0.0 -0.5 0.0 0
M  V30 27 C -0.866 0.0 0.0 0
M  V30 28 C 0.0 -1.4999 0.0 0
M  V30 29 C -1.732 -0.4999 0.0 0
M  V30 30 C -0.866 -1.9999 0.0 0
M  V30 31 O -1.732 -1.4999 0.0 0
M  V30 END ATOM
M  V30 BEGIN BOND
M  V30 1 1 1 2
M  V30 2 2 2 3
M  V30 3 1 2 4
M  V30 4 1 3 5
M  V30 5 1 3 6
M  V30 6 2 4 7
M  V30 7 2 6 8
M  V30 8 1 7 9
M  V30 9 1 9 10
M  V30 10 2 10 11
M  V30 11 1 10 12
M  V30 12 1 11 13
M  V30 13 1 12 14
M  V30 14 2 12 15
M  V30 15 2 13 16
M  V30 16 2 14 17
M  V30 17 1 15 18
M  V30 18 1 17 19
M  V30 19 1 18 20
M  V30 20 1 19 21
M  V30 21 1 20 22
M  V30 22 1 21 23
M  V30 23 1 22 24
M  V30 24 1 24 25
M  V30 25 1 25 26
M  V30 26 1 26 27
M  V30 27 1 26 28
M  V30 28 1 27 29
M  V30 29 1 28 30
M  V30 30 1 29 31
M  V30 31 1 7 8
M  V30 32 1 14 16
M  V30 33 2 18 19
M  V30 34 1 30 31
M  V30 END BOND
M  V30 END CTAB
M  END
>  <Molecule Name>


>  <status>
-

>  <cas>
184475-35-2

>  <name>
GEFITINIB

>  <ID>
895

>  <Smiles>
COc(cc(c1c2)ncnc1Nc(cc1)cc(Cl)c1F)c2OCCCN1CCOCC1

$$$$

Actelion Java MolfileCreator 2.0

  0  0  0  0  0  0              0 V3000
M  V30 BEGIN CTAB
M  V30 COUNTS 34 37 0 0 0
M  V30 BEGIN ATOM
M  V30 1 S 7.7942 2.25 0.0 0
M  V30 2 O 8.5442 3.549 0.0 0
M  V30 3 O 7.0442 3.549 0.0 0
M  V30 4 N 9.0932 1.5 0.0 0
M  V30 5 C 6.4951 1.5 0.0 0
M  V30 6 C 9.0932 0.0 0.0 0
M  V30 7 C 10.3923 2.25 0.0 0
M  V30 8 C 5.1961 2.25 0.0 0
M  V30 9 C 6.4951 0.0 0.0 0
M  V30 10 C 10.3923 -0.75 0.0 0
M  V30 11 C 11.6913 1.5 0.0 0
M  V30 12 C 3.8971 1.5 0.0 0
M  V30 13 C 5.1961 -0.75 0.0 0
M  V30 14 N 11.6913 0.0 0.0 0
M  V30 15 C 2.598 2.25 0.0 0
M  V30 16 C 3.8971 0.0 0.0 0
M  V30 17 C 12.9903 -0.75 0.0 0
M  V30 18 N 1.299 1.5 0.0 0
M  V30 19 N 2.598 3.75 0.0 0
M  V30 20 O 2.598 -0.75 0.0 0
M  V30 21 C 14.2894 0.0 0.0 0
M  V30 22 N 0.0 2.25 0.0 0
M  V30 23 C 1.299 4.5 0.0 0
M  V30 24 C 1.299 0.0 0.0 0
M  V30 25 C 0.0 3.75 0.0 0
M  V30 26 C -1.4265 1.7864 0.0 0
M  V30 27 O 1.299 6.0 0.0 0
M  V30 28 C 0.0 -0.75 0.0 0
M  V30 29 C -1.4265 4.2135 0.0 0
M  V30 30 N -2.3082 3.0 0.0 0
M  V30 31 C -1.8901 0.3598 0.0 0
M  V30 32 C -1.8901 5.6401 0.0 0
M  V30 33 C -3.3573 0.048 0.0 0
M  V30 34 C -3.8208 -1.3785 0.0 0
M  V30 END ATOM
M  V30 BEGIN BOND
M  V30 1 2 1 2
M  V30 2 2 1 3
M  V30 3 1 1 4
M  V30 4 1 1 5
M  V30 5 1 4 6
M  V30 6 1 4 7
M  V30 7 2 5 8
M  V30 8 1 5 9
M  V30 9 1 6 10
M  V30 10 1 7 11
M  V30 11 1 8 12
M  V30 12 2 9 13
M  V30 13 1 10 14
M  V30 14 1 12 15
M  V30 15 2 12 16
M  V30 16 1 14 17
M  V30 17 2 15 18
M  V30 18 1 15 19
M  V30 19 1 16 20
M  V30 20 1 17 21
M  V30 21 1 18 22
M  V30 22 1 19 23
M  V30 23 1 20 24
M  V30 24 1 22 25
M  V30 25 1 22 26
M  V30 26 2 23 27
M  V30 27 1 24 28
M  V30 28 2 25 29
M  V30 29 2 26 30
M  V30 30 1 26 31
M  V30 31 1 29 32
M  V30 32 1 31 33
M  V30 33 1 33 34
M  V30 34 1 11 14
M  V30 35 1 13 16
M  V30 36 1 23 25
M  V30 37 1 29 30
M  V30 END BOND
M  V30 END CTAB
M  END
>  <Molecule Name>


>  <status>
-

>  <cas>
224785-90-4

>  <name>
VARDENAFIL

>  <ID>
896

>  <Smiles>
CCCc1nc(C)c2n1N=C(c(cc(cc1)S(N3CCN(CC)CC3)(=O)=O)c1OCC)NC2=O

$$$$
_c001
Actelion Java MolfileCreator 2.0

  0  0  0  0  0  0              0 V3000
M  V30 BEGIN CTAB
M  V30 COUNTS 19 20 0 0 0
M  V30 BEGIN ATOM
M  V30 1 O 4.3301 0.0 0.0 0
M  V30 2 C 5.1961 -0.5 0.0 0
M  V30 3 C 3.4641 -0.5 0.0 0 CFG=2
M  V30 4 C 6.0621 0.0 0.0 0
M  V30 5 C 5.1961 -1.4999 0.0 0
M  V30 6 C 3.4641 -1.5 0.0 0
M  V30 7 C 2.598 0.0 0.0 0
M  V30 8 C 6.9282 -0.4999 0.0 0
M  V30 9 C 6.0621 1.0 0.0 0
M  V30 10 C 6.0621 -1.9999 0.0 0
M  V30 11 C 2.598 -1.9999 0.0 0
M  V30 12 C 4.3301 -2.0 0.0 0
M  V30 13 C 1.732 -0.5 0.0 0
M  V30 14 C 6.9282 -1.5 0.0 0
M  V30 15 C 2.598 -2.9999 0.0 0
M  V30 16 C 4.3301 -3.0 0.0 0
M  V30 17 N 0.866 0.0 0.0 0
M  V30 18 C 3.4641 -3.5 0.0 0
M  V30 19 C 0.0 -0.5 0.0 0
M  V30 END ATOM
M  V30 BEGIN BOND
M  V30 1 1 1 2
M  V30 2 1 3 1 CFG=3
M  V30 3 2 2 4
M  V30 4 1 2 5
M  V30 5 1 3 6
M  V30 6 1 3 7
M  V30 7 1 4 8
M  V30 8 1 4 9
M  V30 9 2 5 10
M  V30 10 2 6 11
M  V30 11 1 6 12
M  V30 12 1 7 13
M  V30 13 2 8 14
M  V30 14 1 11 15
M  V30 15 2 12 16
M  V30 16 1 13 17
M  V30 17 2 15 18
M  V30 18 1 17 19
M  V30 19 1 10 14
M  V30 20 1 16 18
M  V30 END BOND
M  V30 BEGIN COLLECTION
M  V30 MDLV30/STERAC1 ATOMS=(1 3)
M  V30 END COLLECTION
M  V30 END CTAB
M  END
>  <Molecule Name>
_c001

>  <status>
-

>  <cas>
83015-26-3

>  <name>
ATOMOXETINE

>  <ID>
897

>  <Smiles>
Cc(cccc1)c1OC(CCNC)c1ccccc1

$$$$

Actelion Java MolfileCreator 2.0

  0  0  0  0  0  0              0 V3000
M  V30 BEGIN CTAB
M  V30 COUNTS 21 23 0 0 0
M  V30 BEGIN ATOM
M  V30 1 S 6.4096 -3.1316 0.0 0
M  V30 2 C 5.1961 -2.25 0.0 0
M  V30 3 C 5.9461 -4.5582 0.0 0
M  V30 4 C 3.9826 -3.1316 0.0 0
M  V30 5 C 5.1961 -0.75 0.0 0 CFG=1
M  V30 6 C 4.4461 -4.5582 0.0 0
M  V30 7 O 6.4951 0.0 0.0 0
M  V30 8 C 3.8971 0.0 0.0 0
M  V30 9 C 7.7942 -0.75 0.0 0
M  V30 10 C 2.598 -0.75 0.0 0
M  V30 11 C 9.0932 0.0 0.0 0
M  V30 12 C 7.7942 -2.2499 0.0 0
M  V30 13 N 1.299 0.0 0.0 0
M  V30 14 C 10.3923 -0.7499 0.0 0
M  V30 15 C 9.0932 1.4999 0.0 0
M  V30 16 C 9.0932 -3.0 0.0 0
M  V30 17 C 0.0 -0.75 0.0 0
M  V30 18 C 10.3923 -2.25 0.0 0
M  V30 19 C 11.6913 0.0 0.0 0
M  V30 20 C 10.3923 2.2499 0.0 0
M  V30 21 C 11.6913 1.4999 0.0 0
M  V30 END ATOM
M  V30 BEGIN BOND
M  V30 1 1 1 2
M  V30 2 1 1 3
M  V30 3 2 2 4
M  V30 4 1 5 2
M  V30 5 2 3 6
M  V30 6 1 5 7 CFG=3
M  V30 7 1 5 8
M  V30 8 1 7 9
M  V30 9 1 8 10
M  V30 10 1 9 11
M  V30 11 2 9 12
M  V30 12 1 10 13
M  V30 13 1 11 14
M  V30 14 2 11 15
M  V30 15 1 12 16
M  V30 16 1 13 17
M  V30 17 1 14 18
M  V30 18 2 14 19
M  V30 19 1 15 20
M  V30 20 1 19 21
M  V30 21 1 4 6
M  V30 22 2 16 18
M  V30 23 2 20 21
M  V30 END BOND
M  V30 BEGIN COLLECTION
M  V30 MDLV30/STERAC1 ATOMS=(1 5)
M  V30 END COLLECTION
M  V30 END CTAB
M  END
>  <Molecule Name>


>  <status>
-

>  <cas>
116539-59-4

>  <name>
DULOXETINE

>  <ID>
898

>  <Smiles>
CNCCC(c1cccs1)Oc1cccc2ccccc12

$$$$

Actelion Java MolfileCreator 2.0

  0  0  0  0  0  0              0 V3000
M  V30 BEGIN CTAB
M  V30 COUNTS 11 10 0 0 0
M  V30 BEGIN ATOM
M  V30 1 S 5.1961 -0.5 0.0 0
M  V30 2 O 4.6961 -1.366 0.0 0
M  V30 3 O 5.6961 0.366 0.0 0
M  V30 4 O 6.0621 -1.0 0.0 0
M  V30 5 C 4.3301 0.0 0.0 0
M  V30 6 C 3.4641 -0.5 0.0 0
M  V30 7 C 2.598 0.0 0.0 0
M  V30 8 N 1.732 -0.5 0.0 0
M  V30 9 C 0.866 0.0 0.0 0
M  V30 10 O 0.866 1.0 0.0 0
M  V30 11 C 0.0 -0.5 0.0 0
M  V30 END ATOM
M  V30 BEGIN BOND
M  V30 1 2 1 2
M  V30 2 2 1 3
M  V30 3 1 1 4
M  V30 4 1 1 5
M  V30 5 1 5 6
M  V30 6 1 6 7
M  V30 7 1 7 8
M  V30 8 1 8 9
M  V30 9 2 9 10
M  V30 10 1 9 11
M  V30 END BOND
M  V30 END CTAB
M  END
>  <Molecule Name>


>  <status>
-

>  <cas>
77337-76-9

>  <name>
ACAMPROSATE

>  <ID>
899

>  <Smiles>
CC(NCCCS(O)(=O)=O)=O

$$$$

Actelion Java MolfileCreator 2.0

  0  0  0  0  0  0              0 V3000
M  V30 BEGIN CTAB
M  V30 COUNTS 30 33 0 0 0
M  V30 BEGIN ATOM
M  V30 1 Cl 6.9282 -3.5 0.0 0
M  V30 2 C 7.7942 -3.0 0.0 0
M  V30 3 C 8.6602 -3.5 0.0 0
M  V30 4 C 7.7942 -2.0 0.0 0
M  V30 5 Cl 8.6602 -4.5 0.0 0
M  V30 6 C 9.5262 -3.0 0.0 0
M  V30 7 N 6.9282 -1.5 0.0 0
M  V30 8 C 8.6602 -1.5 0.0 0
M  V30 9 C 9.5262 -1.9999 0.0 0
M  V30 10 C 6.9282 -0.5 0.0 0
M  V30 11 C 6.0621 -2.0 0.0 0
M  V30 12 C 6.0621 0.0 0.0 0
M  V30 13 C 5.1961 -1.5 0.0 0
M  V30 14 N 5.1961 -0.5 0.0 0
M  V30 15 C 4.3301 0.0 0.0 0
M  V30 16 C 3.4641 -0.5 0.0 0
M  V30 17 C 2.598 0.0 0.0 0
M  V30 18 C 1.732 -0.5 0.0 0
M  V30 19 O 0.866 0.0 0.0 0
M  V30 20 C 0.0 -0.5 0.0 0
M  V30 21 C -0.866 0.0 0.0 0
M  V30 22 C 0.0 -1.4999 0.0 0
M  V30 23 C -1.732 -0.4999 0.0 0
M  V30 24 C -0.866 -1.9999 0.0 0
M  V30 25 N -2.598 0.0 0.0 0
M  V30 26 C -1.732 -1.4999 0.0 0
M  V30 27 C -3.4641 -0.4999 0.0 0
M  V30 28 C -2.598 -1.9999 0.0 0
M  V30 29 O -4.3301 0.0 0.0 0
M  V30 30 C -3.4641 -1.4999 0.0 0
M  V30 END ATOM
M  V30 BEGIN BOND
M  V30 1 1 1 2
M  V30 2 2 2 3
M  V30 3 1 2 4
M  V30 4 1 3 5
M  V30 5 1 3 6
M  V30 6 1 4 7
M  V30 7 2 4 8
M  V30 8 2 6 9
M  V30 9 1 7 10
M  V30 10 1 7 11
M  V30 11 1 10 12
M  V30 12 1 11 13
M  V30 13 1 12 14
M  V30 14 1 14 15
M  V30 15 1 15 16
M  V30 16 1 16 17
M  V30 17 1 17 18
M  V30 18 1 18 19
M  V30 19 1 19 20
M  V30 20 2 20 21
M  V30 21 1 20 22
M  V30 22 1 21 23
M  V30 23 2 22 24
M  V30 24 1 23 25
M  V30 25 2 23 26
M  V30 26 1 25 27
M  V30 27 1 26 28
M  V30 28 2 27 29
M  V30 29 1 27 30
M  V30 30 1 8 9
M  V30 31 1 13 14
M  V30 32 1 24 26
M  V30 33 1 28 30
M  V30 END BOND
M  V30 END CTAB
M  END
>  <Molecule Name>


>  <status>
-

>  <cas>
129722-12-9

>  <name>
ARIPIPRAZOLE

>  <ID>
900

>  <Smiles>
O=C(CC1)Nc2c1ccc(OCCCCN(CC1)CCN1c1cccc(Cl)c1Cl)c2

$$$$
_c001
Actelion Java MolfileCreator 2.0

  0  0  0  0  0  0              0 V3000
M  V30 BEGIN CTAB
M  V30 COUNTS 30 35 0 0 0
M  V30 BEGIN ATOM
M  V30 1 O 10.4729 -0.7558 0.0 0
M  V30 2 C 9.1638 0.0 0.0 0
M  V30 3 C 7.8546 -0.7558 0.0 0
M  V30 4 C 9.1638 1.5116 0.0 0
M  V30 5 C 6.5455 0.0 0.0 0
M  V30 6 C 7.8546 2.2674 0.0 0
M  V30 7 C 6.5455 1.5116 0.0 0 CFG=1
M  V30 8 C 5.2364 -0.7558 0.0 0
M  V30 9 C 5.2364 2.2674 0.0 0 CFG=1
M  V30 10 C 6.5455 3.4011 0.0 0
M  V30 11 C 3.9273 0.0 0.0 0 CFG=1
M  V30 12 O 6.1676 3.0232 0.0 0
M  V30 13 C 3.9273 1.5116 0.0 0 CFG=2
M  V30 14 C 5.2364 3.779 0.0 0 CFG=1
M  V30 15 C 2.6182 -0.7558 0.0 0
M  V30 16 C 2.6182 2.2674 0.0 0 CFG=2
M  V30 17 C 3.9273 4.5349 0.0 0
M  V30 18 O 2.6182 -2.2674 0.0 0
M  V30 19 O 1.3091 0.0 0.0 0
M  V30 20 C 2.6182 3.779 0.0 0 CFG=1
M  V30 21 C 1.1805 1.8003 0.0 0
M  V30 22 C 0.0 -0.7558 0.0 0
M  V30 23 C 1.1805 4.2462 0.0 0 CFG=1
M  V30 24 C 2.6057 5.2129 0.0 0
M  V30 25 C 0.292 3.0232 0.0 0
M  V30 26 O 1.9963 5.5038 0.0 0
M  V30 27 C -0.257 4.7133 0.0 0
M  V30 28 C 1.1805 6.692 0.0 0
M  V30 29 C -0.257 6.2249 0.0 0
M  V30 30 O 1.6477 8.1297 0.0 0
M  V30 END ATOM
M  V30 BEGIN BOND
M  V30 1 2 1 2
M  V30 2 1 2 3
M  V30 3 1 2 4
M  V30 4 2 3 5
M  V30 5 1 4 6
M  V30 6 1 7 5
M  V30 7 1 5 8
M  V30 8 1 9 7
M  V30 9 1 7 10 CFG=1
M  V30 10 1 11 8
M  V30 11 1 9 12 CFG=3
M  V30 12 1 13 9
M  V30 13 1 14 9
M  V30 14 1 11 15 CFG=3
M  V30 15 1 13 16 CFG=3
M  V30 16 1 14 17
M  V30 17 2 15 18
M  V30 18 1 15 19
M  V30 19 1 20 16
M  V30 20 1 16 21 CFG=1
M  V30 21 1 19 22
M  V30 22 1 23 20
M  V30 23 1 20 24 CFG=1
M  V30 24 1 21 25
M  V30 25 1 23 26
M  V30 26 1 23 27 CFG=3
M  V30 27 1 26 28
M  V30 28 1 27 29
M  V30 29 2 28 30
M  V30 30 1 6 7
M  V30 31 1 13 11
M  V30 32 1 14 12 CFG=3
M  V30 33 1 17 20
M  V30 34 1 23 25
M  V30 35 1 28 29
M  V30 END BOND
M  V30 BEGIN COLLECTION
M  V30 MDLV30/STERAC1 ATOMS=(8 7 9 11 13 14 16 20 23)
M  V30 END COLLECTION
M  V30 END CTAB
M  END
>  <Molecule Name>
_c001

>  <status>
-

>  <cas>
107724-20-9

>  <name>
EPLERENONE

>  <ID>
901

>  <Smiles>
C[C@@]1([C@H](CC2)[C@@H]([C@H](CC([C@@]3(C)CC4)=CC4=O)C(OC)=O)[C@]33O[C@H]3C1)[C@]2(CC1)OC1=O

$$$$

Actelion Java MolfileCreator 2.0

  0  0  0  0  0  0              0 V3000
M  V30 BEGIN CTAB
M  V30 COUNTS 30 33 0 0 0
M  V30 BEGIN ATOM
M  V30 1 F 8.1529 -3.2071 0.0 0
M  V30 2 C 7.2869 -2.7071 0.0 0
M  V30 3 C 7.2869 -1.7071 0.0 0
M  V30 4 C 6.4208 -3.2071 0.0 0
M  V30 5 C 6.4208 -1.2071 0.0 0
M  V30 6 C 5.5548 -2.7071 0.0 0
M  V30 7 C 5.5548 -1.7071 0.0 0
M  V30 8 N 4.6888 -1.2071 0.0 0
M  V30 9 C 4.43 -0.2411 0.0 0
M  V30 10 C 3.7229 -1.4659 0.0 0 CFG=1
M  V30 11 O 4.93 0.6248 0.0 0
M  V30 12 C 3.4641 -0.5 0.0 0 CFG=1
M  V30 13 C 3.2229 -2.3319 0.0 0
M  V30 14 C 2.598 0.0 0.0 0
M  V30 15 C 2.2229 -2.3319 0.0 0
M  V30 16 C 3.7229 -3.1979 0.0 0
M  V30 17 C 1.732 -0.5 0.0 0
M  V30 18 C 1.7229 -3.1979 0.0 0
M  V30 19 C 3.2229 -4.064 0.0 0
M  V30 20 C 0.866 0.0 0.0 0 CFG=2
M  V30 21 C 2.2229 -4.064 0.0 0
M  V30 22 O 0.866 1.0 0.0 0
M  V30 23 C 0.0 -0.5 0.0 0
M  V30 24 O 1.7229 -4.93 0.0 0
M  V30 25 C -0.866 0.0 0.0 0
M  V30 26 C 0.0 -1.4999 0.0 0
M  V30 27 C -1.732 -0.4999 0.0 0
M  V30 28 C -0.866 -1.9999 0.0 0
M  V30 29 C -1.732 -1.4999 0.0 0
M  V30 30 F -2.598 -1.9999 0.0 0
M  V30 END ATOM
M  V30 BEGIN BOND
M  V30 1 1 1 2
M  V30 2 2 2 3
M  V30 3 1 2 4
M  V30 4 1 3 5
M  V30 5 2 4 6
M  V30 6 2 5 7
M  V30 7 1 7 8
M  V30 8 1 8 9
M  V30 9 1 10 8
M  V30 10 2 9 11
M  V30 11 1 12 9
M  V30 12 1 10 13 CFG=3
M  V30 13 1 12 14 CFG=1
M  V30 14 2 13 15
M  V30 15 1 13 16
M  V30 16 1 14 17
M  V30 17 1 15 18
M  V30 18 2 16 19
M  V30 19 1 20 17
M  V30 20 2 18 21
M  V30 21 1 20 22 CFG=1
M  V30 22 1 20 23
M  V30 23 1 21 24
M  V30 24 2 23 25
M  V30 25 1 23 26
M  V30 26 1 25 27
M  V30 27 2 26 28
M  V30 28 2 27 29
M  V30 29 1 29 30
M  V30 30 1 6 7
M  V30 31 1 10 12
M  V30 32 1 19 21
M  V30 33 1 28 29
M  V30 END BOND
M  V30 BEGIN COLLECTION
M  V30 MDLV30/STERAC1 ATOMS=(3 10 12 20)
M  V30 END COLLECTION
M  V30 END CTAB
M  END
>  <Molecule Name>


>  <status>
-

>  <cas>
163222-33-1

>  <name>
EZETIMIBE

>  <ID>
902

>  <Smiles>
O[C@@H](CC[C@H]([C@@H](c(cc1)ccc1O)N1c(cc2)ccc2F)C1=O)c(cc1)ccc1F

$$$$

Actelion Java MolfileCreator 2.0

  0  0  0  0  0  0              0 V3000
M  V30 BEGIN CTAB
M  V30 COUNTS 11 10 0 0 0
M  V30 BEGIN ATOM
M  V30 1 O 5.1961 -0.5 0.0 0
M  V30 2 C 4.3301 0.0 0.0 0
M  V30 3 O 4.3301 1.0 0.0 0 CHG=-1
M  V30 4 C 3.4641 -0.5 0.0 0
M  V30 5 C 2.598 0.0 0.0 0 CFG=1
M  V30 6 C 2.598 1.0 0.0 0
M  V30 7 C 1.732 -0.5 0.0 0
M  V30 8 N 1.732 1.5 0.0 0
M  V30 9 C 0.866 0.0 0.0 0
M  V30 10 C 0.866 1.0 0.0 0
M  V30 11 C 0.0 -0.5 0.0 0
M  V30 END ATOM
M  V30 BEGIN BOND
M  V30 1 2 1 2
M  V30 2 1 2 3
M  V30 3 1 2 4
M  V30 4 1 5 4 CFG=3
M  V30 5 1 5 6
M  V30 6 1 5 7
M  V30 7 1 6 8
M  V30 8 1 7 9
M  V30 9 1 9 10
M  V30 10 1 9 11
M  V30 END BOND
M  V30 BEGIN COLLECTION
M  V30 MDLV30/STERAC1 ATOMS=(1 5)
M  V30 END COLLECTION
M  V30 END CTAB
M  END
>  <Molecule Name>


>  <status>
-

>  <cas>
148553-50-8

>  <name>
PREGABALIN

>  <ID>
903

>  <Smiles>
CC(C)CC(CC([O-])=O)CN

$$$$

Actelion Java MolfileCreator 2.0

  0  0  0  0  0  0              0 V3000
M  V30 BEGIN CTAB
M  V30 COUNTS 34 35 0 0 0
M  V30 BEGIN ATOM
M  V30 1 P 4.3301 0.0 0.0 0
M  V30 2 O 4.3301 -1.0 0.0 0
M  V30 3 O 5.1961 -0.5 0.0 0
M  V30 4 O 4.3301 0.9999 0.0 0
M  V30 5 C 3.4641 -0.5 0.0 0
M  V30 6 C 6.0621 0.0 0.0 0
M  V30 7 C 5.1961 1.4999 0.0 0
M  V30 8 O 2.598 0.0 0.0 0
M  V30 9 O 6.9282 -0.5 0.0 0
M  V30 10 O 5.1961 2.4999 0.0 0
M  V30 11 C 1.732 -0.5 0.0 0
M  V30 12 C 7.7942 0.0 0.0 0
M  V30 13 C 6.0621 2.9999 0.0 0
M  V30 14 C 0.866 0.0 0.0 0
M  V30 15 O 7.7942 1.0 0.0 0
M  V30 16 C 8.6602 -0.5 0.0 0
M  V30 17 O 6.0621 3.9999 0.0 0
M  V30 18 C 6.9282 2.4999 0.0 0
M  V30 19 N 0.0 -0.5 0.0 0
M  V30 20 C 8.1602 -1.366 0.0 0
M  V30 21 C 9.5262 -1.0 0.0 0
M  V30 22 C 9.1602 0.366 0.0 0
M  V30 23 C 7.4282 3.366 0.0 0
M  V30 24 C 7.7942 1.9999 0.0 0
M  V30 25 C 6.4282 1.6339 0.0 0
M  V30 26 C -0.9135 -0.0932 0.0 0
M  V30 27 C -0.1045 -1.4945 0.0 0
M  V30 28 N -1.2225 0.8577 0.0 0
M  V30 29 C -1.5826 -0.8364 0.0 0
M  V30 30 N -1.0826 -1.7024 0.0 0
M  V30 31 C -2.2007 1.0657 0.0 0
M  V30 32 C -2.5608 -0.6284 0.0 0
M  V30 33 N -2.8698 0.3225 0.0 0
M  V30 34 N -3.2299 -1.3716 0.0 0
M  V30 END ATOM
M  V30 BEGIN BOND
M  V30 1 2 1 2
M  V30 2 1 1 3
M  V30 3 1 1 4
M  V30 4 1 1 5
M  V30 5 1 3 6
M  V30 6 1 4 7
M  V30 7 1 5 8
M  V30 8 1 6 9
M  V30 9 1 7 10
M  V30 10 1 8 11
M  V30 11 1 9 12
M  V30 12 1 10 13
M  V30 13 1 11 14
M  V30 14 2 12 15
M  V30 15 1 12 16
M  V30 16 2 13 17
M  V30 17 1 13 18
M  V30 18 1 14 19
M  V30 19 1 16 20
M  V30 20 1 16 21
M  V30 21 1 16 22
M  V30 22 1 18 23
M  V30 23 1 18 24
M  V30 24 1 18 25
M  V30 25 1 19 26
M  V30 26 1 19 27
M  V30 27 2 26 28
M  V30 28 1 26 29
M  V30 29 2 27 30
M  V30 30 1 28 31
M  V30 31 2 29 32
M  V30 32 2 31 33
M  V30 33 1 32 34
M  V30 34 1 29 30
M  V30 35 1 32 33
M  V30 END BOND
M  V30 END CTAB
M  END
>  <Molecule Name>


>  <status>
-

>  <cas>
142340-99-6

>  <name>
ADEFOVIR DIPIVOXIL

>  <ID>
904

>  <Smiles>
CC(C)(C)C(OCOP(COCCn1c2ncnc(N)c2nc1)(OCOC(C(C)(C)C)=O)=O)=O

$$$$

Actelion Java MolfileCreator 2.0

  0  0  0  0  0  0              0 V3000
M  V30 BEGIN CTAB
M  V30 COUNTS 19 18 0 0 0
M  V30 BEGIN ATOM
M  V30 1 P 7.7942 0.0 0.0 0
M  V30 2 O 8.2942 -0.866 0.0 0
M  V30 3 O 8.6602 0.5 0.0 0 CHG=-1
M  V30 4 O 7.2942 0.866 0.0 0 CHG=-1
M  V30 5 C 6.9282 -0.5 0.0 0
M  V30 6 P 6.9282 -1.4999 0.0 0
M  V30 7 O 6.0621 -0.9999 0.0 0
M  V30 8 C 6.0621 0.0 0.0 0
M  V30 9 O 5.9282 -1.4999 0.0 0
M  V30 10 O 6.9282 -2.5 0.0 0 CHG=-1
M  V30 11 O 7.9282 -1.5 0.0 0 CHG=-1
M  V30 12 C 5.1961 -0.5 0.0 0
M  V30 13 N 4.3301 0.0 0.0 0
M  V30 14 C 3.4641 -0.5 0.0 0
M  V30 15 C 4.3301 1.0 0.0 0
M  V30 16 C 2.598 0.0 0.0 0
M  V30 17 C 1.732 -0.5 0.0 0
M  V30 18 C 0.866 0.0 0.0 0
M  V30 19 C 0.0 -0.5 0.0 0
M  V30 END ATOM
M  V30 BEGIN BOND
M  V30 1 2 1 2
M  V30 2 1 1 3
M  V30 3 1 1 4
M  V30 4 1 1 5
M  V30 5 1 5 6
M  V30 6 1 5 7
M  V30 7 1 5 8
M  V30 8 2 6 9
M  V30 9 1 6 10
M  V30 10 1 6 11
M  V30 11 1 8 12
M  V30 12 1 12 13
M  V30 13 1 13 14
M  V30 14 1 13 15
M  V30 15 1 14 16
M  V30 16 1 16 17
M  V30 17 1 17 18
M  V30 18 1 18 19
M  V30 END BOND
M  V30 END CTAB
M  END
>  <Molecule Name>


>  <status>
-

>  <cas>
114084-78-5

>  <name>
IBANDRONATE

>  <ID>
905

>  <Smiles>
CCCCCN(C)CCC(O)(P([O-])([O-])=O)P([O-])([O-])=O

$$$$

Actelion Java MolfileCreator 2.0

  0  0  0  0  0  0              0 V3000
M  V30 BEGIN CTAB
M  V30 COUNTS 27 30 0 0 0
M  V30 BEGIN ATOM
M  V30 1 Cl 4.3432 -4.3193 0.0 0
M  V30 2 C 4.1353 -3.3411 0.0 0
M  V30 3 C 4.8785 -2.672 0.0 0
M  V30 4 C 3.1843 -3.0321 0.0 0
M  V30 5 N 4.6705 -1.6939 0.0 0
M  V30 6 C 2.9763 -2.054 0.0 0
M  V30 7 C 3.7195 -1.3848 0.0 0
M  V30 8 N 3.5116 -0.4067 0.0 0
M  V30 9 C 4.1807 0.3364 0.0 0
M  V30 10 C 2.598 0.0 0.0 0 CFG=1
M  V30 11 O 5.1752 0.2318 0.0 0
M  V30 12 C 3.6807 1.2024 0.0 0
M  V30 13 O 1.732 -0.5 0.0 0
M  V30 14 C 2.7026 0.9945 0.0 0
M  V30 15 N 3.9897 2.1534 0.0 0
M  V30 16 C 0.866 0.0 0.0 0
M  V30 17 N 2.0334 1.7376 0.0 0
M  V30 18 C 3.3206 2.8966 0.0 0
M  V30 19 O 0.866 1.0 0.0 0
M  V30 20 N 0.0 -0.5 0.0 0
M  V30 21 C 2.3424 2.6887 0.0 0
M  V30 22 C -0.866 0.0 0.0 0
M  V30 23 C 0.0 -1.4999 0.0 0
M  V30 24 C -1.732 -0.4999 0.0 0
M  V30 25 C -0.866 -1.9999 0.0 0
M  V30 26 N -1.732 -1.4999 0.0 0
M  V30 27 C -2.598 -1.9999 0.0 0
M  V30 END ATOM
M  V30 BEGIN BOND
M  V30 1 1 1 2
M  V30 2 2 2 3
M  V30 3 1 2 4
M  V30 4 1 3 5
M  V30 5 2 4 6
M  V30 6 2 5 7
M  V30 7 1 7 8
M  V30 8 1 8 9
M  V30 9 1 10 8
M  V30 10 2 9 11
M  V30 11 1 9 12
M  V30 12 1 10 13 CFG=1
M  V30 13 1 10 14
M  V30 14 1 12 15
M  V30 15 1 13 16
M  V30 16 1 14 17
M  V30 17 2 15 18
M  V30 18 2 16 19
M  V30 19 1 16 20
M  V30 20 2 17 21
M  V30 21 1 20 22
M  V30 22 1 20 23
M  V30 23 1 22 24
M  V30 24 1 23 25
M  V30 25 1 24 26
M  V30 26 1 26 27
M  V30 27 1 6 7
M  V30 28 2 12 14
M  V30 29 1 18 21
M  V30 30 1 25 26
M  V30 END BOND
M  V30 BEGIN COLLECTION
M  V30 MDLV30/STERAC1 ATOMS=(1 10)
M  V30 END COLLECTION
M  V30 END CTAB
M  END
>  <Molecule Name>


>  <status>
-

>  <cas>
138729-47-2

>  <name>
ESZOPICLONE

>  <ID>
906

>  <Smiles>
CN(CC1)CCN1C(OC(c1c(C2=O)nccn1)N2c(cc1)ncc1Cl)=O

$$$$

Actelion Java MolfileCreator 2.0

  0  0  0  0  0  0              0 V3000
M  V30 BEGIN CTAB
M  V30 COUNTS 13 15 0 0 0
M  V30 BEGIN ATOM
M  V30 1 N 1.3996 -0.4795 0.0 0
M  V30 2 C 0.0 0.0 0.0 0 CFG=2
M  V30 3 C 0.0259 1.6329 0.0 0
M  V30 4 C -1.111 -0.427 0.0 0
M  V30 5 C -0.8528 -1.1688 0.0 0
M  V30 6 C -1.5033 2.1513 0.0 0 CFG=2
M  V30 7 C -2.8975 0.1023 0.0 0 CFG=1
M  V30 8 C -2.3473 -0.6862 0.0 0 CFG=2
M  V30 9 C -2.7779 1.6364 0.0 0
M  V30 10 C -2.1885 1.1776 0.0 0
M  V30 11 C -1.549 3.656 0.0 0
M  V30 12 C -3.7195 -1.0627 0.0 0
M  V30 13 C -4.1783 0.5964 0.0 0
M  V30 END ATOM
M  V30 BEGIN BOND
M  V30 1 1 2 1 CFG=1
M  V30 2 1 2 3
M  V30 3 1 2 4
M  V30 4 1 2 5
M  V30 5 1 6 3
M  V30 6 1 7 4
M  V30 7 1 8 5 CFG=1
M  V30 8 1 6 9
M  V30 9 1 6 10
M  V30 10 1 6 11 CFG=3
M  V30 11 1 7 12
M  V30 12 1 7 13 CFG=1
M  V30 13 1 7 9
M  V30 14 1 8 10
M  V30 15 1 8 12
M  V30 END BOND
M  V30 BEGIN COLLECTION
M  V30 MDLV30/STEABS ATOMS=(4 2 6 7 8)
M  V30 END COLLECTION
M  V30 END CTAB
M  END
>  <Molecule Name>


>  <status>
-

>  <cas>
19982-08-2

>  <name>
MEMANTINE

>  <ID>
907

>  <Smiles>
C[C@@](C[C@@H](C1)C2)(C[C@@]1(C)C1)C[C@]12N

$$$$

Actelion Java MolfileCreator 2.0

  0  0  0  0  0  0              0 V3000
M  V30 BEGIN CTAB
M  V30 COUNTS 31 33 0 0 0
M  V30 BEGIN ATOM
M  V30 1 O 11.6913 0.0 0.0 0
M  V30 2 C 11.6913 1.4999 0.0 0
M  V30 3 N 12.9903 2.2499 0.0 0
M  V30 4 C 10.3923 2.2499 0.0 0
M  V30 5 C 14.2894 1.4999 0.0 0
M  V30 6 N 9.0932 1.4999 0.0 0
M  V30 7 C 14.2894 0.0 0.0 0
M  V30 8 C 15.5884 2.2499 0.0 0
M  V30 9 C 7.7942 2.25 0.0 0
M  V30 10 C 9.0932 0.0 0.0 0
M  V30 11 C 15.5884 -0.75 0.0 0
M  V30 12 C 12.9903 -0.75 0.0 0
M  V30 13 C 16.8874 1.4999 0.0 0
M  V30 14 C 15.5884 3.7499 0.0 0
M  V30 15 C 6.4951 1.5 0.0 0
M  V30 16 C 7.7942 -0.75 0.0 0
M  V30 17 C 16.8874 0.0 0.0 0
M  V30 18 N 6.4951 0.0 0.0 0
M  V30 19 C 5.1961 -0.75 0.0 0
M  V30 20 C 3.8971 0.0 0.0 0 CFG=2
M  V30 21 O 3.8971 1.5 0.0 0
M  V30 22 C 2.598 -0.75 0.0 0
M  V30 23 O 1.299 0.0 0.0 0
M  V30 24 C 0.0 -0.75 0.0 0
M  V30 25 C -1.299 0.0 0.0 0
M  V30 26 C 0.0 -2.25 0.0 0
M  V30 27 O -1.299 1.5 0.0 0
M  V30 28 C -2.598 -0.7499 0.0 0
M  V30 29 C -1.299 -2.9999 0.0 0
M  V30 30 C -2.598 2.25 0.0 0
M  V30 31 C -2.598 -2.2499 0.0 0
M  V30 END ATOM
M  V30 BEGIN BOND
M  V30 1 2 1 2
M  V30 2 1 2 3
M  V30 3 1 2 4
M  V30 4 1 3 5
M  V30 5 1 4 6
M  V30 6 2 5 7
M  V30 7 1 5 8
M  V30 8 1 6 9
M  V30 9 1 6 10
M  V30 10 1 7 11
M  V30 11 1 7 12
M  V30 12 2 8 13
M  V30 13 1 8 14
M  V30 14 1 9 15
M  V30 15 1 10 16
M  V30 16 2 11 17
M  V30 17 1 15 18
M  V30 18 1 18 19
M  V30 19 1 20 19
M  V30 20 1 20 21 CFG=1
M  V30 21 1 20 22
M  V30 22 1 22 23
M  V30 23 1 23 24
M  V30 24 2 24 25
M  V30 25 1 24 26
M  V30 26 1 25 27
M  V30 27 1 25 28
M  V30 28 2 26 29
M  V30 29 1 27 30
M  V30 30 2 28 31
M  V30 31 1 13 17
M  V30 32 1 16 18
M  V30 33 1 29 31
M  V30 END BOND
M  V30 BEGIN COLLECTION
M  V30 MDLV30/STERAC1 ATOMS=(1 20)
M  V30 END COLLECTION
M  V30 END CTAB
M  END
>  <Molecule Name>


>  <status>
-

>  <cas>
95635-55-5

>  <name>
RANOLAZINE

>  <ID>
908

>  <Smiles>
Cc1cccc(C)c1NC(CN1CCN(CC(COc(cccc2)c2OC)O)CC1)=O

$$$$

Actelion Java MolfileCreator 2.0

  0  0  0  0  0  0              0 V3000
M  V30 BEGIN CTAB
M  V30 COUNTS 27 30 0 0 0
M  V30 BEGIN ATOM
M  V30 1 F 4.3301 0.0 0.0 0
M  V30 2 C 3.4641 -0.5 0.0 0
M  V30 3 C 2.598 0.0 0.0 0
M  V30 4 C 3.4641 -1.4999 0.0 0
M  V30 5 N 2.598 1.0 0.0 0
M  V30 6 C 1.732 -0.5 0.0 0
M  V30 7 C 2.598 -2.0 0.0 0
M  V30 8 C 3.4641 1.4999 0.0 0
M  V30 9 C 1.732 1.5 0.0 0
M  V30 10 O 0.866 0.0 0.0 0
M  V30 11 C 1.732 -1.5 0.0 0
M  V30 12 C 2.598 -3.0 0.0 0
M  V30 13 C 3.4641 2.4999 0.0 0 CFG=1
M  V30 14 C 1.732 2.5 0.0 0
M  V30 15 C 0.866 0.9999 0.0 0
M  V30 16 N 0.866 -1.9999 0.0 0
M  V30 17 O 3.4641 -3.5 0.0 0
M  V30 18 C 1.732 -3.4999 0.0 0
M  V30 19 N 2.598 3.0 0.0 0
M  V30 20 C 4.3301 2.9999 0.0 0
M  V30 21 C 0.866 -2.9999 0.0 0
M  V30 22 C 0.0 -1.5 0.0 0
M  V30 23 C 1.732 -4.5 0.0 0
M  V30 24 C -0.5 -0.6339 0.0 0
M  V30 25 C -1.0 -1.4999 0.0 0
M  V30 26 O 0.866 -5.0 0.0 0
M  V30 27 O 2.598 -5.0 0.0 0 CHG=-1
M  V30 END ATOM
M  V30 BEGIN BOND
M  V30 1 1 1 2
M  V30 2 2 2 3
M  V30 3 1 2 4
M  V30 4 1 3 5
M  V30 5 1 3 6
M  V30 6 2 4 7
M  V30 7 1 5 8
M  V30 8 1 5 9
M  V30 9 1 6 10
M  V30 10 2 6 11
M  V30 11 1 7 12
M  V30 12 1 13 8
M  V30 13 1 9 14
M  V30 14 1 10 15
M  V30 15 1 11 16
M  V30 16 2 12 17
M  V30 17 1 12 18
M  V30 18 1 13 19
M  V30 19 1 13 20 CFG=1
M  V30 20 1 16 21
M  V30 21 1 16 22
M  V30 22 1 18 23
M  V30 23 1 22 24
M  V30 24 1 22 25
M  V30 25 2 23 26
M  V30 26 1 23 27
M  V30 27 1 7 11
M  V30 28 1 14 19
M  V30 29 2 18 21
M  V30 30 1 24 25
M  V30 END BOND
M  V30 BEGIN COLLECTION
M  V30 MDLV30/STERAC1 ATOMS=(1 13)
M  V30 END COLLECTION
M  V30 END CTAB
M  END
>  <Molecule Name>


>  <status>
-

>  <cas>
112811-59-3

>  <name>
GATIFLOXACIN

>  <ID>
909

>  <Smiles>
CC(C1)NCCN1c(c(OC)c(c1c2)N(C3CC3)C=C(C([O-])=O)C1=O)c2F

$$$$

Actelion Java MolfileCreator 2.0

  0  0  0  0  0  0              0 V3000
M  V30 BEGIN CTAB
M  V30 COUNTS 21 22 0 0 0
M  V30 BEGIN ATOM
M  V30 1 S 2.7026 0.9945 0.0 0
M  V30 2 C 2.598 0.0 0.0 0
M  V30 3 C 3.6807 1.2024 0.0 0
M  V30 4 N 3.5116 -0.4067 0.0 0
M  V30 5 N 1.732 -0.5 0.0 0
M  V30 6 N 4.0874 2.1159 0.0 0 CHG=1
M  V30 7 C 4.1807 0.3364 0.0 0
M  V30 8 C 0.866 0.0 0.0 0
M  V30 9 O 5.082 2.2205 0.0 0
M  V30 10 O 3.4997 2.9249 0.0 0 CHG=-1
M  V30 11 O 0.866 1.0 0.0 0
M  V30 12 C 0.0 -0.5 0.0 0
M  V30 13 C 0.0 -1.4999 0.0 0
M  V30 14 C -0.866 0.0 0.0 0
M  V30 15 O 0.866 -1.9999 0.0 0
M  V30 16 C -0.866 -2.0 0.0 0
M  V30 17 C -1.732 -0.5 0.0 0
M  V30 18 C 0.866 -2.9999 0.0 0
M  V30 19 C -1.732 -1.5 0.0 0
M  V30 20 O 0.0 -3.5 0.0 0
M  V30 21 C 1.732 -3.4999 0.0 0
M  V30 END ATOM
M  V30 BEGIN BOND
M  V30 1 1 1 2
M  V30 2 1 1 3
M  V30 3 2 2 4
M  V30 4 1 2 5
M  V30 5 1 3 6
M  V30 6 2 3 7
M  V30 7 1 5 8
M  V30 8 2 6 9
M  V30 9 1 6 10
M  V30 10 2 8 11
M  V30 11 1 8 12
M  V30 12 2 12 13
M  V30 13 1 12 14
M  V30 14 1 13 15
M  V30 15 1 13 16
M  V30 16 2 14 17
M  V30 17 1 15 18
M  V30 18 2 16 19
M  V30 19 2 18 20
M  V30 20 1 18 21
M  V30 21 1 4 7
M  V30 22 1 17 19
M  V30 END BOND
M  V30 END CTAB
M  END
>  <Molecule Name>


>  <status>
-

>  <cas>
55981-09-4

>  <name>
NITAZOXANIDE

>  <ID>
910

>  <Smiles>
CC(Oc(cccc1)c1C(Nc1ncc([N+]([O-])=O)s1)=O)=O

$$$$

Actelion Java MolfileCreator 2.0

  0  0  0  0  0  0              0 V3000
M  V30 BEGIN CTAB
M  V30 COUNTS 16 17 0 0 0
M  V30 BEGIN ATOM
M  V30 1 S 3.9683 -0.1398 0.0 0
M  V30 2 C 2.598 -0.75 0.0 0 CFG=1
M  V30 3 C 4.972 -1.2546 0.0 0
M  V30 4 O 2.7548 -2.2417 0.0 0
M  V30 5 C 1.299 0.0 0.0 0
M  V30 6 C 4.222 -2.5536 0.0 0 CFG=2
M  V30 7 O 0.0 -0.75 0.0 0
M  V30 8 N 4.8321 -3.9239 0.0 0
M  V30 9 C 3.9505 -5.1374 0.0 0
M  V30 10 C 6.3239 -4.0807 0.0 0
M  V30 11 O 2.4587 -4.9807 0.0 0
M  V30 12 N 4.5606 -6.5078 0.0 0
M  V30 13 C 6.934 -5.451 0.0 0
M  V30 14 C 6.0524 -6.6646 0.0 0
M  V30 15 F 8.4258 -5.6078 0.0 0
M  V30 16 N 6.6625 -8.0349 0.0 0
M  V30 END ATOM
M  V30 BEGIN BOND
M  V30 1 1 2 1
M  V30 2 1 1 3
M  V30 3 1 2 4
M  V30 4 1 2 5 CFG=1
M  V30 5 1 6 3
M  V30 6 1 5 7
M  V30 7 1 6 8 CFG=1
M  V30 8 1 8 9
M  V30 9 1 8 10
M  V30 10 2 9 11
M  V30 11 1 9 12
M  V30 12 2 10 13
M  V30 13 2 12 14
M  V30 14 1 13 15
M  V30 15 1 14 16
M  V30 16 1 4 6
M  V30 17 1 13 14
M  V30 END BOND
M  V30 BEGIN COLLECTION
M  V30 MDLV30/STERAC1 ATOMS=(2 2 6)
M  V30 END COLLECTION
M  V30 END CTAB
M  END
>  <Molecule Name>


>  <status>
-

>  <cas>
143491-57-0

>  <name>
EMTRICITABINE

>  <ID>
911

>  <Smiles>
NC(C(F)=CN1[C@H]2O[C@@H](CO)SC2)=NC1=O

$$$$
_c001
Actelion Java MolfileCreator 2.0

  0  0  0  0  0  0              0 V3000
M  V30 BEGIN CTAB
M  V30 COUNTS 89 95 0 0 0
M  V30 BEGIN ATOM
M  V30 1 S 21.4714 -8.6797 0.0 0
M  V30 2 O 20.2731 -9.5832 0.0 0
M  V30 3 O 22.6698 -7.7762 0.0 0
M  V30 4 O 22.375 -9.878 0.0 0
M  V30 5 O 20.5679 -7.4813 0.0 0
M  V30 6 C 21.7889 -11.2596 0.0 0
M  V30 7 C 22.6924 -12.4579 0.0 0
M  V30 8 C 20.2994 -11.4429 0.0 0
M  V30 9 O 24.182 -12.2746 0.0 0
M  V30 10 C 22.1064 -13.8395 0.0 0
M  V30 11 C 19.7134 -12.8245 0.0 0
M  V30 12 C 20.6169 -14.0228 0.0 0
M  V30 13 C 18.1724 -12.7953 0.0 0 CFG=1
M  V30 14 O 17.3204 -11.8095 0.0 0
M  V30 15 C 17.7847 -14.295 0.0 0 CFG=2
M  V30 16 O 16.2152 -14.6173 0.0 0
M  V30 17 C 18.5235 -15.5124 0.0 0 CFG=1
M  V30 18 N 20.0746 -15.5616 0.0 0
M  V30 19 C 18.0406 -16.7376 0.0 0
M  V30 20 C 20.6516 -16.9064 0.0 0
M  V30 21 O 19.2773 -17.5368 0.0 0
M  V30 22 N 16.8954 -17.3644 0.0 0
M  V30 23 O 22.1296 -17.167 0.0 0
M  V30 24 C 19.6661 -18.0631 0.0 0 CFG=2
M  V30 25 C 15.3957 -16.9692 0.0 0 CFG=1
M  V30 26 N 18.1947 -17.4145 0.0 0
M  V30 27 C 19.5044 -19.483 0.0 0
M  V30 28 C 14.4248 -18.0359 0.0 0
M  V30 29 C 15.0538 -15.5731 0.0 0 CFG=1
M  V30 30 C 18.062 -15.9521 0.0 0
M  V30 31 C 17.3158 -18.6211 0.0 0
M  V30 32 C 18.0482 -19.8461 0.0 0 CFG=1
M  V30 33 O 12.9469 -17.7753 0.0 0
M  V30 34 N 15.0353 -19.407 0.0 0
M  V30 35 O 16.2462 -14.3496 0.0 0
M  V30 36 C 13.728 -15.0247 0.0 0
M  V30 37 O 19.5181 -15.124 0.0 0
M  V30 38 C 17.0491 -15.1337 0.0 0 CFG=2
M  V30 39 O 17.4909 -21.3303 0.0 0
M  V30 40 C 16.5351 -19.3546 0.0 0 CFG=1
M  V30 41 C 14.6216 -20.8496 0.0 0
M  V30 42 C 13.4135 -13.5127 0.0 0
M  V30 43 N 15.6657 -15.3799 0.0 0
M  V30 44 C 17.419 -13.5249 0.0 0 CFG=1
M  V30 45 C 17.044 -17.9683 0.0 0
M  V30 46 C 16.9841 -20.7407 0.0 0 CFG=1
M  V30 47 C 15.8658 -21.6888 0.0 0 CFG=2
M  V30 48 O 14.5295 -12.5533 0.0 0
M  V30 49 N 11.9887 -13.0929 0.0 0
M  V30 50 C 14.6964 -14.0803 0.0 0
M  V30 51 O 18.8522 -13.1776 0.0 0
M  V30 52 C 16.256 -12.3896 0.0 0
M  V30 53 O 18.5444 -17.7431 0.0 0
M  V30 54 N 16.0628 -16.8501 0.0 0
M  V30 55 O 18.491 -21.1785 0.0 0
M  V30 56 C 15.9181 -23.1886 0.0 0
M  V30 57 O 13.1237 -14.2365 0.0 0
M  V30 58 C 15.492 -12.8752 0.0 0 CFG=2
M  V30 59 C 16.1428 -15.5648 0.0 0 CFG=1
M  V30 60 N 14.8816 -11.5042 0.0 0
M  V30 61 C 17.0133 -13.0003 0.0 0
M  V30 62 O 14.6998 -14.763 0.0 0
M  V30 63 C 17.4053 -14.6362 0.0 0 CFG=2
M  V30 64 C 15.7637 -10.2901 0.0 0
M  V30 65 O 18.7078 -15.0278 0.0 0
M  V30 66 O 17.2562 -10.447 0.0 0
M  V30 67 C 15.1533 -8.9191 0.0 0
M  V30 68 C 16.0354 -7.7049 0.0 0
M  V30 69 C 13.6608 -8.7622 0.0 0
M  V30 70 C 15.425 -6.3339 0.0 0
M  V30 71 C 13.0503 -7.3912 0.0 0
M  V30 72 C 13.9325 -6.177 0.0 0
M  V30 73 C 13.322 -4.806 0.0 0
M  V30 74 N 14.0724 -3.5063 0.0 0
M  V30 75 C 11.8541 -4.494 0.0 0
M  V30 76 O 13.0682 -2.3911 0.0 0
M  V30 77 C 11.6972 -3.0015 0.0 0
M  V30 78 C 10.3975 -2.2511 0.0 0
M  V30 79 C 10.3975 -0.7503 0.0 0
M  V30 80 C 9.0978 -3.0015 0.0 0
M  V30 81 C 9.0978 0.0 0.0 0
M  V30 82 C 7.7981 -2.2511 0.0 0
M  V30 83 C 7.7981 -0.7503 0.0 0
M  V30 84 O 6.4984 0.0 0.0 0
M  V30 85 C 5.1987 -0.7503 0.0 0
M  V30 86 C 3.899 0.0 0.0 0
M  V30 87 C 2.5993 -0.7503 0.0 0
M  V30 88 C 1.2996 0.0 0.0 0
M  V30 89 C 0.0 -0.7503 0.0 0
M  V30 END ATOM
M  V30 BEGIN BOND
M  V30 1 2 1 2
M  V30 2 2 1 3
M  V30 3 1 1 4
M  V30 4 1 1 5
M  V30 5 1 4 6
M  V30 6 2 6 7
M  V30 7 1 6 8
M  V30 8 1 7 9
M  V30 9 1 7 10
M  V30 10 2 8 11
M  V30 11 2 10 12
M  V30 12 1 13 11
M  V30 13 1 13 14 CFG=3
M  V30 14 1 15 13
M  V30 15 1 15 16 CFG=1
M  V30 16 1 17 15
M  V30 17 1 17 18 CFG=1
M  V30 18 1 17 19
M  V30 19 1 18 20
M  V30 20 2 19 21
M  V30 21 1 19 22
M  V30 22 2 20 23
M  V30 23 1 24 20
M  V30 24 1 25 22 CFG=1
M  V30 25 1 24 26 CFG=1
M  V30 26 1 24 27
M  V30 27 1 25 28
M  V30 28 1 29 25
M  V30 29 1 26 30
M  V30 30 1 26 31
M  V30 31 1 32 27
M  V30 32 2 28 33
M  V30 33 1 28 34
M  V30 34 1 29 35 CFG=3
M  V30 35 1 29 36
M  V30 36 2 30 37
M  V30 37 1 38 30
M  V30 38 1 32 39 CFG=3
M  V30 39 1 40 34 CFG=1
M  V30 40 1 34 41
M  V30 41 1 36 42
M  V30 42 1 38 43 CFG=3
M  V30 43 1 44 38
M  V30 44 1 40 45
M  V30 45 1 46 40
M  V30 46 1 47 41
M  V30 47 2 42 48
M  V30 48 1 42 49
M  V30 49 1 43 50
M  V30 50 1 44 51 CFG=3
M  V30 51 1 44 52
M  V30 52 2 45 53
M  V30 53 1 45 54
M  V30 54 1 46 55 CFG=3
M  V30 55 1 47 56 CFG=3
M  V30 56 2 50 57
M  V30 57 1 58 50
M  V30 58 1 59 54
M  V30 59 1 58 60 CFG=3
M  V30 60 1 58 61
M  V30 61 1 59 62 CFG=1
M  V30 62 1 63 59
M  V30 63 1 60 64
M  V30 64 1 63 65 CFG=3
M  V30 65 2 64 66
M  V30 66 1 64 67
M  V30 67 2 67 68
M  V30 68 1 67 69
M  V30 69 1 68 70
M  V30 70 2 69 71
M  V30 71 2 70 72
M  V30 72 1 72 73
M  V30 73 2 73 74
M  V30 74 1 73 75
M  V30 75 1 74 76
M  V30 76 2 75 77
M  V30 77 1 77 78
M  V30 78 2 78 79
M  V30 79 1 78 80
M  V30 80 1 79 81
M  V30 81 2 80 82
M  V30 82 2 81 83
M  V30 83 1 83 84
M  V30 84 1 84 85
M  V30 85 1 85 86
M  V30 86 1 86 87
M  V30 87 1 87 88
M  V30 88 1 88 89
M  V30 89 1 11 12
M  V30 90 1 31 32
M  V30 91 1 46 47
M  V30 92 1 61 63
M  V30 93 1 71 72
M  V30 94 1 76 77
M  V30 95 1 82 83
M  V30 END BOND
M  V30 BEGIN COLLECTION
M  V30 MDLV30/STERAC1 ATOMS=(15 13 15 17 24 25 29 32 38 40 44 46 47 58 59 63)
M  V30 END COLLECTION
M  V30 END CTAB
M  END
>  <Molecule Name>
_c001

>  <status>
-

>  <cas>
235114-32-6

>  <name>
MICAFUNGIN

>  <ID>
912

>  <Smiles>
CCCCCOc(cc1)ccc1-c1cc(-c(cc2)ccc2C(N[C@H](C[C@@H]([C@@H](NC([C@@H]([C@@H]([C@H](C)C2)O)N2C([C@@H]([C@H](CC(N)=O)O)NC([C@@H]([C@H]([C@@H](c(cc2)cc(OS(O)(=O)=O)c2O)O)O)NC([C@@H](C[C@@H](C2)O)N2C([C@@H]([C@H](C)O)N2)=O)=O)=O)=O)=O)O)O)C2=O)=O)no1

$$$$

Actelion Java MolfileCreator 2.0

  0  0  0  0  0  0              0 V3000
M  V30 BEGIN CTAB
M  V30 COUNTS 31 33 0 0 0
M  V30 BEGIN ATOM
M  V30 1 O 11.6913 0.0 0.0 0
M  V30 2 C 11.6913 1.4999 0.0 0
M  V30 3 N 12.9903 2.2499 0.0 0
M  V30 4 C 10.3923 2.2499 0.0 0
M  V30 5 C 14.2894 1.4999 0.0 0
M  V30 6 N 9.0932 1.4999 0.0 0
M  V30 7 C 14.2894 0.0 0.0 0
M  V30 8 C 15.5884 2.2499 0.0 0
M  V30 9 C 7.7942 2.25 0.0 0
M  V30 10 C 9.0932 0.0 0.0 0
M  V30 11 C 15.5884 -0.75 0.0 0
M  V30 12 C 12.9903 -0.75 0.0 0
M  V30 13 C 16.8874 1.4999 0.0 0
M  V30 14 C 15.5884 3.7499 0.0 0
M  V30 15 C 6.4951 1.5 0.0 0
M  V30 16 C 7.7942 -0.75 0.0 0
M  V30 17 C 16.8874 0.0 0.0 0
M  V30 18 N 6.4951 0.0 0.0 0
M  V30 19 C 5.1961 -0.75 0.0 0
M  V30 20 C 3.8971 0.0 0.0 0 CFG=2
M  V30 21 O 3.8971 1.5 0.0 0
M  V30 22 C 2.598 -0.75 0.0 0
M  V30 23 O 1.299 0.0 0.0 0
M  V30 24 C 0.0 -0.75 0.0 0
M  V30 25 C -1.299 0.0 0.0 0
M  V30 26 C 0.0 -2.25 0.0 0
M  V30 27 O -1.299 1.5 0.0 0
M  V30 28 C -2.598 -0.7499 0.0 0
M  V30 29 C -1.299 -2.9999 0.0 0
M  V30 30 C -2.598 2.25 0.0 0
M  V30 31 C -2.598 -2.2499 0.0 0
M  V30 END ATOM
M  V30 BEGIN BOND
M  V30 1 2 1 2
M  V30 2 1 2 3
M  V30 3 1 2 4
M  V30 4 1 3 5
M  V30 5 1 4 6
M  V30 6 2 5 7
M  V30 7 1 5 8
M  V30 8 1 6 9
M  V30 9 1 6 10
M  V30 10 1 7 11
M  V30 11 1 7 12
M  V30 12 2 8 13
M  V30 13 1 8 14
M  V30 14 1 9 15
M  V30 15 1 10 16
M  V30 16 2 11 17
M  V30 17 1 15 18
M  V30 18 1 18 19
M  V30 19 1 20 19
M  V30 20 1 20 21 CFG=1
M  V30 21 1 20 22
M  V30 22 1 22 23
M  V30 23 1 23 24
M  V30 24 2 24 25
M  V30 25 1 24 26
M  V30 26 1 25 27
M  V30 27 1 25 28
M  V30 28 2 26 29
M  V30 29 1 27 30
M  V30 30 2 28 31
M  V30 31 1 13 17
M  V30 32 1 16 18
M  V30 33 1 29 31
M  V30 END BOND
M  V30 BEGIN COLLECTION
M  V30 MDLV30/STERAC1 ATOMS=(1 20)
M  V30 END COLLECTION
M  V30 END CTAB
M  END
>  <Molecule Name>


>  <status>
-

>  <cas>
95635-55-5

>  <name>
RANOLAZINE

>  <ID>
913

>  <Smiles>
Cc1cccc(C)c1NC(CN1CCN(CC(COc(cccc2)c2OC)O)CC1)=O

$$$$
_c001
Actelion Java MolfileCreator 2.0

  0  0  0  0  0  0              0 V3000
M  V30 BEGIN CTAB
M  V30 COUNTS 39 41 0 0 0
M  V30 BEGIN ATOM
M  V30 1 S 9.0932 -3.0 0.0 0
M  V30 2 O 8.3432 -4.299 0.0 0
M  V30 3 O 9.8432 -4.299 0.0 0
M  V30 4 N 7.7942 -2.25 0.0 0
M  V30 5 C 10.3923 -2.25 0.0 0
M  V30 6 C 7.7942 -0.75 0.0 0
M  V30 7 C 6.4951 -3.0 0.0 0
M  V30 8 C 11.6913 -3.0 0.0 0
M  V30 9 C 10.3923 -0.75 0.0 0
M  V30 10 C 6.4951 0.0 0.0 0 CFG=1
M  V30 11 C 6.4951 -4.5 0.0 0
M  V30 12 C 12.9903 -2.25 0.0 0
M  V30 13 C 11.6913 0.0 0.0 0
M  V30 14 O 6.4951 1.5 0.0 0
M  V30 15 C 5.1961 -0.75 0.0 0 CFG=1
M  V30 16 C 5.1961 -5.25 0.0 0
M  V30 17 C 7.7942 -5.25 0.0 0
M  V30 18 C 12.9903 -0.75 0.0 0
M  V30 19 P 7.7942 2.25 0.0 0
M  V30 20 N 5.1961 -2.25 0.0 0
M  V30 21 C 3.8971 0.0 0.0 0
M  V30 22 N 14.2894 0.0 0.0 0
M  V30 23 O 7.0442 3.549 0.0 0
M  V30 24 O 9.0932 3.0 0.0 0 CHG=-1
M  V30 25 O 8.5442 0.9509 0.0 0 CHG=-1
M  V30 26 C 3.8971 -3.0 0.0 0
M  V30 27 C 3.8971 1.5 0.0 0
M  V30 28 O 2.598 -2.25 0.0 0
M  V30 29 O 3.8971 -4.5 0.0 0
M  V30 30 C 2.598 2.25 0.0 0
M  V30 31 C 5.1961 2.25 0.0 0
M  V30 32 C 2.598 -5.25 0.0 0 CFG=2
M  V30 33 C 2.598 3.75 0.0 0
M  V30 34 C 5.1961 3.75 0.0 0
M  V30 35 C 2.4412 -6.7417 0.0 0
M  V30 36 C 1.2277 -4.6399 0.0 0
M  V30 37 C 3.8971 4.5 0.0 0
M  V30 38 O 0.974 -7.0536 0.0 0
M  V30 39 C 0.224 -5.7546 0.0 0
M  V30 END ATOM
M  V30 BEGIN BOND
M  V30 1 2 1 2
M  V30 2 2 1 3
M  V30 3 1 1 4
M  V30 4 1 1 5
M  V30 5 1 4 6
M  V30 6 1 4 7
M  V30 7 2 5 8
M  V30 8 1 5 9
M  V30 9 1 10 6
M  V30 10 1 7 11
M  V30 11 1 8 12
M  V30 12 2 9 13
M  V30 13 1 10 14 CFG=3
M  V30 14 1 15 10
M  V30 15 1 11 16
M  V30 16 1 11 17
M  V30 17 2 12 18
M  V30 18 1 14 19
M  V30 19 1 15 20 CFG=1
M  V30 20 1 15 21
M  V30 21 1 18 22
M  V30 22 2 19 23
M  V30 23 1 19 24
M  V30 24 1 19 25
M  V30 25 1 20 26
M  V30 26 1 21 27
M  V30 27 2 26 28
M  V30 28 1 26 29
M  V30 29 2 27 30
M  V30 30 1 27 31
M  V30 31 1 32 29 CFG=3
M  V30 32 1 30 33
M  V30 33 2 31 34
M  V30 34 1 32 35
M  V30 35 1 32 36
M  V30 36 2 33 37
M  V30 37 1 35 38
M  V30 38 1 36 39
M  V30 39 1 13 18
M  V30 40 1 34 37
M  V30 41 1 38 39
M  V30 END BOND
M  V30 BEGIN COLLECTION
M  V30 MDLV30/STERAC1 ATOMS=(3 10 15 32)
M  V30 END COLLECTION
M  V30 END CTAB
M  END
>  <Molecule Name>
_c001

>  <status>
-

>  <cas>
226700-79-4

>  <name>
FOSAMPRENAVIR

>  <ID>
914

>  <Smiles>
CC(C)CN(C[C@H]([C@H](Cc1ccccc1)NC(O[C@@H]1COCC1)=O)OP([O-])([O-])=O)S(c(cc1)ccc1N)(=O)=O

$$$$

Actelion Java MolfileCreator 2.0

  0  0  0  0  0  0              0 V3000
M  V30 BEGIN CTAB
M  V30 COUNTS 37 40 0 0 0
M  V30 BEGIN ATOM
M  V30 1 F 3.4641 -4.4999 0.0 0
M  V30 2 C 3.4641 -3.5 0.0 0
M  V30 3 C 4.3301 -3.0 0.0 0
M  V30 4 C 2.598 -2.9999 0.0 0
M  V30 5 C 4.3301 -2.0 0.0 0
M  V30 6 C 2.598 -1.9999 0.0 0
M  V30 7 C 3.4641 -1.5 0.0 0
M  V30 8 C 3.4641 -0.4999 0.0 0 CFG=2
M  V30 9 N 4.3301 0.0 0.0 0
M  V30 10 C 2.598 0.0 0.0 0 CFG=2
M  V30 11 C 4.3301 1.0 0.0 0
M  V30 12 C 5.1961 -0.5 0.0 0
M  V30 13 O 2.598 1.0 0.0 0
M  V30 14 O 1.732 -0.5 0.0 0
M  V30 15 C 3.4641 1.5 0.0 0
M  V30 16 C 6.0621 0.0 0.0 0
M  V30 17 C 0.866 0.0 0.0 0 CFG=1
M  V30 18 N 6.9757 -0.4067 0.0 0
M  V30 19 N 6.1667 0.9945 0.0 0
M  V30 20 C 0.0 -0.4999 0.0 0
M  V30 21 C 0.866 1.0 0.0 0
M  V30 22 C 7.6448 0.3364 0.0 0
M  V30 23 N 7.1448 1.2024 0.0 0
M  V30 24 C 0.0 -1.4999 0.0 0
M  V30 25 C -0.866 0.0 0.0 0
M  V30 26 O 8.6393 0.2318 0.0 0
M  V30 27 C -0.866 -1.9999 0.0 0
M  V30 28 C -1.732 -0.4999 0.0 0
M  V30 29 C -1.732 -1.4999 0.0 0
M  V30 30 C -0.866 -3.0 0.0 0
M  V30 31 C -2.598 0.0 0.0 0
M  V30 32 F -1.866 -2.9999 0.0 0
M  V30 33 F -0.866 -4.0 0.0 0
M  V30 34 F 0.1339 -3.0 0.0 0
M  V30 35 F -2.098 0.866 0.0 0
M  V30 36 F -3.4641 0.5 0.0 0
M  V30 37 F -3.098 -0.866 0.0 0
M  V30 END ATOM
M  V30 BEGIN BOND
M  V30 1 1 1 2
M  V30 2 2 2 3
M  V30 3 1 2 4
M  V30 4 1 3 5
M  V30 5 2 4 6
M  V30 6 2 5 7
M  V30 7 1 8 7 CFG=1
M  V30 8 1 8 9
M  V30 9 1 10 8
M  V30 10 1 9 11
M  V30 11 1 9 12
M  V30 12 1 10 13
M  V30 13 1 10 14 CFG=1
M  V30 14 1 11 15
M  V30 15 1 12 16
M  V30 16 1 17 14 CFG=1
M  V30 17 2 16 18
M  V30 18 1 16 19
M  V30 19 1 17 20
M  V30 20 1 17 21
M  V30 21 1 18 22
M  V30 22 1 19 23
M  V30 23 2 20 24
M  V30 24 1 20 25
M  V30 25 2 22 26
M  V30 26 1 24 27
M  V30 27 2 25 28
M  V30 28 2 27 29
M  V30 29 1 27 30
M  V30 30 1 28 31
M  V30 31 1 30 32
M  V30 32 1 30 33
M  V30 33 1 30 34
M  V30 34 1 31 35
M  V30 35 1 31 36
M  V30 36 1 31 37
M  V30 37 1 6 7
M  V30 38 1 13 15
M  V30 39 1 22 23
M  V30 40 1 28 29
M  V30 END BOND
M  V30 BEGIN COLLECTION
M  V30 MDLV30/STERAC1 ATOMS=(3 8 10 17)
M  V30 END COLLECTION
M  V30 END CTAB
M  END
>  <Molecule Name>


>  <status>
-

>  <cas>
170729-80-3

>  <name>
APREPITANT

>  <ID>
915

>  <Smiles>
C[C@H](c1cc(C(F)(F)F)cc(C(F)(F)F)c1)O[C@H]1OCCN(CC(NN2)=NC2=O)[C@H]1c(cc1)ccc1F

$$$$
_c001
Actelion Java MolfileCreator 2.0

  0  0  0  0  0  0              0 V3000
M  V30 BEGIN CTAB
M  V30 COUNTS 27 29 0 0 0
M  V30 BEGIN ATOM
M  V30 1 O 2.598 0.0 0.0 0
M  V30 2 C 1.732 -0.5 0.0 0
M  V30 3 O 0.866 0.0 0.0 0
M  V30 4 C 1.732 -1.5 0.0 0
M  V30 5 C 0.0 -0.5 0.0 0
M  V30 6 C -0.866 0.0 0.0 0
M  V30 7 C 0.0 -1.4999 0.0 0
M  V30 8 C -1.732 -0.4999 0.0 0
M  V30 9 C -0.866 -1.9999 0.0 0
M  V30 10 C -1.732 -1.4999 0.0 0
M  V30 11 C -2.598 -1.9999 0.0 0
M  V30 12 C -3.4641 -1.4999 0.0 0
M  V30 13 C -2.598 -2.9999 0.0 0
M  V30 14 N -3.4641 -0.4999 0.0 0
M  V30 15 C -4.3301 -1.9999 0.0 0
M  V30 16 C -3.4641 -3.4999 0.0 0
M  V30 17 C -1.732 -3.4999 0.0 0
M  V30 18 C -4.3301 0.0 0.0 0
M  V30 19 C -5.1961 -1.4999 0.0 0
M  V30 20 C -3.4641 -4.4999 0.0 0
M  V30 21 C -1.732 -4.4999 0.0 0
M  V30 22 C -5.1961 -0.4999 0.0 0
M  V30 23 C -2.598 -4.9999 0.0 0
M  V30 24 O -2.598 -5.9999 0.0 0
M  V30 25 C -3.4641 -6.4999 0.0 0
M  V30 26 O -4.3301 -5.9999 0.0 0
M  V30 27 C -3.4641 -7.4999 0.0 0
M  V30 END ATOM
M  V30 BEGIN BOND
M  V30 1 2 1 2
M  V30 2 1 2 3
M  V30 3 1 2 4
M  V30 4 1 3 5
M  V30 5 2 5 6
M  V30 6 1 5 7
M  V30 7 1 6 8
M  V30 8 2 7 9
M  V30 9 2 8 10
M  V30 10 1 10 11
M  V30 11 1 11 12
M  V30 12 1 11 13
M  V30 13 2 12 14
M  V30 14 1 12 15
M  V30 15 2 13 16
M  V30 16 1 13 17
M  V30 17 1 14 18
M  V30 18 2 15 19
M  V30 19 1 16 20
M  V30 20 2 17 21
M  V30 21 2 18 22
M  V30 22 2 20 23
M  V30 23 1 23 24
M  V30 24 1 24 25
M  V30 25 2 25 26
M  V30 26 1 25 27
M  V30 27 1 9 10
M  V30 28 1 19 22
M  V30 29 1 21 23
M  V30 END BOND
M  V30 END CTAB
M  END
>  <Molecule Name>
_c001

>  <status>
-

>  <cas>
603-50-9

>  <name>
BISACODYL

>  <ID>
916

>  <Smiles>
CC(Oc1ccc(C(c(cc2)ccc2OC(C)=O)c2ncccc2)cc1)=O

$$$$

Actelion Java MolfileCreator 2.0

  0  0  0  0  0  0              0 V3000
M  V30 BEGIN CTAB
M  V30 COUNTS 19 22 0 0 0
M  V30 BEGIN ATOM
M  V30 1 N 1.4558 1.4917 0.0 0
M  V30 2 C 1.299 0.0 0.0 0
M  V30 3 C 2.923 1.8036 0.0 0
M  V30 4 N 2.6693 -0.6101 0.0 0
M  V30 5 N 0.0 -0.75 0.0 0
M  V30 6 C 3.673 0.5046 0.0 0 CFG=2
M  V30 7 C 2.915 -2.0898 0.0 0
M  V30 8 C 5.1703 0.4149 0.0 0
M  V30 9 C 4.2251 -2.8203 0.0 0
M  V30 10 C 1.6274 -2.8591 0.0 0
M  V30 11 C 6.0337 -0.8116 0.0 0
M  V30 12 C 5.8009 1.7759 0.0 0
M  V30 13 C 4.2476 -4.3201 0.0 0
M  V30 14 C 5.6131 -2.2514 0.0 0
M  V30 15 C 1.6498 -4.359 0.0 0
M  V30 16 C 7.5277 -0.6772 0.0 0
M  V30 17 C 7.2948 1.9104 0.0 0
M  V30 18 C 2.9599 -5.0895 0.0 0
M  V30 19 C 8.1582 0.6838 0.0 0
M  V30 END ATOM
M  V30 BEGIN BOND
M  V30 1 2 1 2
M  V30 2 1 1 3
M  V30 3 1 2 4
M  V30 4 1 2 5
M  V30 5 1 6 3
M  V30 6 1 4 7
M  V30 7 1 6 8
M  V30 8 2 7 9
M  V30 9 1 7 10
M  V30 10 2 8 11
M  V30 11 1 8 12
M  V30 12 1 9 13
M  V30 13 1 9 14
M  V30 14 2 10 15
M  V30 15 1 11 16
M  V30 16 2 12 17
M  V30 17 2 13 18
M  V30 18 2 16 19
M  V30 19 1 6 4 CFG=1
M  V30 20 1 11 14
M  V30 21 1 15 18
M  V30 22 1 17 19
M  V30 END BOND
M  V30 BEGIN COLLECTION
M  V30 MDLV30/STERAC1 ATOMS=(1 6)
M  V30 END COLLECTION
M  V30 END CTAB
M  END
>  <Molecule Name>


>  <status>
-

>  <cas>
80012-43-7

>  <name>
EPINASTINE

>  <ID>
917

>  <Smiles>
NC1=NCC(c2c(C3)cccc2)N1c1c3cccc1

$$$$

Actelion Java MolfileCreator 2.0

  0  0  0  0  0  0              0 V3000
M  V30 BEGIN CTAB
M  V30 COUNTS 115 118 0 0 0
M  V30 BEGIN ATOM
M  V30 1 O 23.5312 -5.2111 0.0 0
M  V30 2 C 25.0266 -5.0846 0.0 0
M  V30 3 O 25.052 -3.584 0.0 0
M  V30 4 C 25.3039 -6.5595 0.0 0 CFG=1
M  V30 5 C 25.3789 -2.1193 0.0 0 CFG=1
M  V30 6 N 25.8723 -7.9484 0.0 0
M  V30 7 C 23.8645 -6.9845 0.0 0
M  V30 8 C 25.9939 -0.7503 0.0 0 CFG=2
M  V30 9 C 23.9547 -1.6459 0.0 0
M  V30 10 C 26.7087 -9.1945 0.0 0
M  V30 11 C 23.513 -8.4435 0.0 0
M  V30 12 N 24.6942 0.0 0.0 0
M  V30 13 C 26.8719 0.4667 0.0 0
M  V30 14 O 25.5537 -10.1527 0.0 0
M  V30 15 C 27.7789 -10.2467 0.0 0 CFG=1
M  V30 16 O 24.6007 -9.4775 0.0 0
M  V30 17 C 22.0736 -8.8685 0.0 0
M  V30 18 C 24.6942 1.5007 0.0 0
M  V30 19 O 25.7974 1.381 0.0 0
M  V30 20 N 27.977 1.4821 0.0 0
M  V30 21 N 29.0389 -11.0619 0.0 0
M  V30 22 C 26.8403 -11.4178 0.0 0 CFG=1
M  V30 23 C 21.7221 -10.3275 0.0 0
M  V30 24 C 20.9859 -7.8346 0.0 0
M  V30 25 O 25.9939 2.2511 0.0 0
M  V30 26 C 23.3945 2.2511 0.0 0 CFG=1
M  V30 27 C 29.2638 2.2544 0.0 0
M  V30 28 C 30.4372 -11.6069 0.0 0
M  V30 29 C 27.3852 -12.8161 0.0 0
M  V30 30 C 25.3569 -11.1905 0.0 0
M  V30 31 N 22.8098 -11.3615 0.0 0
M  V30 32 C 20.2827 -10.7526 0.0 0
M  V30 33 C 19.5466 -8.2596 0.0 0
M  V30 34 N 23.3945 3.7519 0.0 0
M  V30 35 C 22.0948 1.5007 0.0 0
M  V30 36 C 30.6798 2.7517 0.0 0
M  V30 37 O 30.0366 -13.0532 0.0 0
M  V30 38 C 31.9166 -11.8591 0.0 0 CFG=2
M  V30 39 C 26.4467 -13.9872 0.0 0
M  V30 40 C 19.195 -9.7186 0.0 0
M  V30 41 C 22.0948 4.5022 0.0 0
M  V30 42 C 22.0948 0.0 0.0 0
M  V30 43 O 30.3282 4.2107 0.0 0
M  V30 44 N 32.1668 2.9539 0.0 0
M  V30 45 N 33.4165 -11.8085 0.0 0
M  V30 46 C 31.8153 -13.3565 0.0 0
M  V30 47 O 24.9632 -13.7599 0.0 0
M  V30 48 O 26.9916 -15.3855 0.0 0 CHG=-1
M  V30 49 O 20.7951 3.7519 0.0 0
M  V30 50 C 22.0948 6.003 0.0 0 CFG=2
M  V30 51 O 23.3945 -0.7503 0.0 0
M  V30 52 O 20.7951 -0.7503 0.0 0 CHG=-1
M  V30 53 C 33.6642 2.8526 0.0 0 CFG=2
M  V30 54 C 34.8755 -11.4569 0.0 0
M  V30 55 O 33.0614 -14.1929 0.0 0
M  V30 56 N 23.3945 6.7534 0.0 0
M  V30 57 C 20.7951 6.7534 0.0 0
M  V30 58 C 35.1105 2.4519 0.0 0
M  V30 59 C 33.9165 4.332 0.0 0
M  V30 60 O 35.3729 -12.8728 0.0 0
M  V30 61 C 36.2339 -10.8188 0.0 0
M  V30 62 C 24.6942 6.003 0.0 0
M  V30 63 C 19.4954 6.003 0.0 0
M  V30 64 O 35.6554 3.8503 0.0 0
M  V30 65 N 36.4465 1.7684 0.0 0
M  V30 66 C 32.7614 5.2902 0.0 0
M  V30 67 N 37.436 -9.9203 0.0 0
M  V30 68 O 24.6942 4.5022 0.0 0
M  V30 69 C 25.9939 6.7534 0.0 0 CFG=1
M  V30 70 O 19.4954 4.5022 0.0 0
M  V30 71 N 18.1957 6.7534 0.0 0
M  V30 72 C 37.6176 0.8298 0.0 0 CFG=2
M  V30 73 C 33.0137 6.7696 0.0 0
M  V30 74 C 38.4326 -8.7983 0.0 0
M  V30 75 N 27.2936 6.003 0.0 0
M  V30 76 C 25.9939 8.2541 0.0 0
M  V30 77 C 38.5758 -0.3251 0.0 0
M  V30 78 C 38.6698 1.8999 0.0 0
M  V30 79 N 31.8586 7.7278 0.0 0
M  V30 80 O 39.6498 -9.6763 0.0 0
M  V30 81 C 39.183 -7.4986 0.0 0 CFG=1
M  V30 82 C 28.5933 6.7534 0.0 0
M  V30 83 C 24.6942 9.0045 0.0 0
M  V30 84 O 39.8219 0.5112 0.0 0
M  V30 85 N 39.2818 -1.6494 0.0 0
M  V30 86 C 38.2691 3.3462 0.0 0
M  V30 87 N 39.6564 -6.0745 0.0 0
M  V30 88 C 40.552 -8.1137 0.0 0
M  V30 89 O 29.893 6.003 0.0 0
M  V30 90 C 28.5933 8.2541 0.0 0
M  V30 91 C 24.5373 10.4971 0.0 0
M  V30 92 C 23.3232 8.3941 0.0 0
M  V30 93 C 39.7069 -3.0888 0.0 0 CFG=1
M  V30 94 O 36.8163 3.7224 0.0 0
M  V30 95 O 39.3213 4.4164 0.0 0 CHG=-1
M  V30 96 C 39.8334 -4.5842 0.0 0
M  V30 97 C 41.7691 -7.2356 0.0 0
M  V30 98 C 27.2936 9.0045 0.0 0
M  V30 99 C 23.0694 10.8091 0.0 0
M  V30 100 C 25.5415 11.6123 0.0 0
M  V30 101 N 22.319 9.5094 0.0 0
M  V30 102 C 41.1818 -2.8115 0.0 0
M  V30 103 O 41.334 -4.6095 0.0 0
M  V30 104 O 41.6173 -5.7426 0.0 0
M  V30 105 O 43.138 -7.8507 0.0 0 CHG=-1
M  V30 106 C 27.2936 10.5053 0.0 0
M  V30 107 C 22.6056 12.2364 0.0 0
M  V30 108 C 25.0778 13.0397 0.0 0
M  V30 109 C 28.5933 11.2557 0.0 0
M  V30 110 C 23.6098 13.3517 0.0 0
M  V30 111 C 28.5933 12.7564 0.0 0
M  V30 112 C 29.893 13.5068 0.0 0
M  V30 113 C 29.893 15.0076 0.0 0
M  V30 114 C 31.1927 15.758 0.0 0
M  V30 115 C 31.1927 17.2587 0.0 0
M  V30 END ATOM
M  V30 BEGIN BOND
M  V30 1 2 1 2
M  V30 2 1 2 3
M  V30 3 1 4 2
M  V30 4 1 5 3
M  V30 5 1 4 6
M  V30 6 1 4 7 CFG=1
M  V30 7 1 8 5
M  V30 8 1 5 9 CFG=3
M  V30 9 1 6 10
M  V30 10 1 7 11
M  V30 11 1 8 12 CFG=3
M  V30 12 1 8 13
M  V30 13 2 10 14
M  V30 14 1 15 10
M  V30 15 2 11 16
M  V30 16 1 11 17
M  V30 17 1 12 18
M  V30 18 2 13 19
M  V30 19 1 13 20
M  V30 20 1 15 21 CFG=1
M  V30 21 1 22 15
M  V30 22 2 17 23
M  V30 23 1 17 24
M  V30 24 2 18 25
M  V30 25 1 26 18
M  V30 26 1 20 27
M  V30 27 1 21 28
M  V30 28 1 22 29
M  V30 29 1 22 30 CFG=1
M  V30 30 1 23 31
M  V30 31 1 23 32
M  V30 32 2 24 33
M  V30 33 1 26 34 CFG=3
M  V30 34 1 26 35
M  V30 35 1 27 36
M  V30 36 2 28 37
M  V30 37 1 38 28
M  V30 38 1 29 39
M  V30 39 2 32 40
M  V30 40 1 34 41
M  V30 41 1 35 42
M  V30 42 2 36 43
M  V30 43 1 36 44
M  V30 44 1 38 45
M  V30 45 1 38 46 CFG=3
M  V30 46 2 39 47
M  V30 47 1 39 48
M  V30 48 2 41 49
M  V30 49 1 50 41
M  V30 50 2 42 51
M  V30 51 1 42 52
M  V30 52 1 53 44
M  V30 53 1 45 54
M  V30 54 1 46 55
M  V30 55 1 50 56 CFG=1
M  V30 56 1 50 57
M  V30 57 1 53 58
M  V30 58 1 53 59 CFG=1
M  V30 59 2 54 60
M  V30 60 1 54 61
M  V30 61 1 56 62
M  V30 62 1 57 63
M  V30 63 2 58 64
M  V30 64 1 58 65
M  V30 65 1 59 66
M  V30 66 1 61 67
M  V30 67 2 62 68
M  V30 68 1 69 62
M  V30 69 2 63 70
M  V30 70 1 63 71
M  V30 71 1 72 65
M  V30 72 1 66 73
M  V30 73 1 67 74
M  V30 74 1 69 75 CFG=3
M  V30 75 1 69 76
M  V30 76 1 72 77
M  V30 77 1 72 78 CFG=1
M  V30 78 1 73 79
M  V30 79 2 74 80
M  V30 80 1 81 74
M  V30 81 1 75 82
M  V30 82 1 76 83
M  V30 83 2 77 84
M  V30 84 1 77 85
M  V30 85 1 78 86
M  V30 86 1 81 87
M  V30 87 1 81 88 CFG=1
M  V30 88 2 82 89
M  V30 89 1 82 90
M  V30 90 1 83 91
M  V30 91 2 83 92
M  V30 92 1 93 85
M  V30 93 2 86 94
M  V30 94 1 86 95
M  V30 95 1 87 96
M  V30 96 1 88 97
M  V30 97 1 90 98
M  V30 98 2 91 99
M  V30 99 1 91 100
M  V30 100 1 92 101
M  V30 101 1 93 102 CFG=3
M  V30 102 2 96 103
M  V30 103 2 97 104
M  V30 104 1 97 105
M  V30 105 1 98 106
M  V30 106 1 99 107
M  V30 107 2 100 108
M  V30 108 1 106 109
M  V30 109 2 107 110
M  V30 110 1 109 111
M  V30 111 1 111 112
M  V30 112 1 112 113
M  V30 113 1 113 114
M  V30 114 1 114 115
M  V30 115 1 33 40
M  V30 116 1 93 96
M  V30 117 1 99 101
M  V30 118 1 108 110
M  V30 END BOND
M  V30 BEGIN COLLECTION
M  V30 MDLV30/STERAC1 ATOMS=(13 4 5 8 15 22 26 38 50 53 69 72 81 93)
M  V30 END COLLECTION
M  V30 END CTAB
M  END
>  <Molecule Name>


>  <status>
-

>  <cas>
103060-53-3

>  <name>
DAPTOMYCIN

>  <ID>
918

>  <Smiles>
CCCCCCCCCC(N[C@@H](Cc1c[nH]c2c1cccc2)C(N[C@H](CC(N)=O)C(N[C@@H](CC([O-])=O)C(N[C@@H]([C@@H](C)OC([C@H](CC(c(cccc1)c1N)=O)NC([C@H]([C@H](C)CC([O-])=O)NC([C@@H](CO)NC(CNC([C@H](CC([O-])=O)NC([C@@H](C)NC([C@H](CC([O-])=O)NC([C@H](CCCN)NC(CN1)=O)=O)=O)=O)=O)=O)=O)=O)=O)C1=O)=O)=O)=O)=O

$$$$
_c001
Actelion Java MolfileCreator 2.0

  0  0  0  0  0  0              0 V3000
M  V30 BEGIN CTAB
M  V30 COUNTS 29 33 0 0 0
M  V30 BEGIN ATOM
M  V30 1 O 1.9745 -1.4393 0.0 0
M  V30 2 C 1.732 -0.5 0.0 0
M  V30 3 O 2.598 0.0 0.0 0
M  V30 4 C 0.866 0.0 0.0 0
M  V30 5 C 3.5635 -0.5568 0.0 0 CFG=2
M  V30 6 O 0.866 1.0 0.0 0
M  V30 7 C 0.866 -1.0 0.0 0
M  V30 8 C 0.0 -0.5 0.0 0
M  V30 9 C 4.3361 0.1045 0.0 0
M  V30 10 C 3.3764 -1.5572 0.0 0
M  V30 11 C 0.1279 -1.507 0.0 0
M  V30 12 C 1.6107 -1.5303 0.0 0
M  V30 13 C -0.866 0.0 0.0 0
M  V30 14 C -0.2454 -1.5334 0.0 0
M  V30 15 C 5.4816 -0.7306 0.0 0 CFG=2
M  V30 16 C 4.6726 -2.1319 0.0 0 CFG=1
M  V30 17 C 0.0 -2.4999 0.0 0
M  V30 18 C 1.732 -2.5 0.0 0
M  V30 19 C -1.732 -0.4999 0.0 0
M  V30 20 C -0.866 -1.9999 0.0 0
M  V30 21 N 4.5681 -1.1374 0.0 0 CHG=1
M  V30 22 C 6.1507 -1.4738 0.0 0
M  V30 23 C 5.6507 -2.3398 0.0 0
M  V30 24 C 0.866 -3.0 0.0 0
M  V30 25 C -1.732 -1.4999 0.0 0
M  V30 26 C 4.4551 -0.2936 0.0 0
M  V30 27 C 3.7809 -1.4614 0.0 0
M  V30 28 C 3.4801 0.0742 0.0 0
M  V30 29 C 2.9801 -0.8009 0.0 0
M  V30 END ATOM
M  V30 BEGIN BOND
M  V30 1 2 1 2
M  V30 2 1 2 3
M  V30 3 1 2 4
M  V30 4 1 5 3 CFG=3
M  V30 5 1 4 6
M  V30 6 1 4 7
M  V30 7 1 4 8
M  V30 8 1 5 9
M  V30 9 1 5 10
M  V30 10 2 7 11
M  V30 11 1 7 12
M  V30 12 2 8 13
M  V30 13 1 8 14
M  V30 14 1 15 9
M  V30 15 1 16 10
M  V30 16 1 11 17
M  V30 17 2 12 18
M  V30 18 1 13 19
M  V30 19 2 14 20
M  V30 20 1 15 21 CFG=3
M  V30 21 1 15 22
M  V30 22 1 16 23
M  V30 23 2 17 24
M  V30 24 2 19 25
M  V30 25 1 21 26
M  V30 26 1 21 27
M  V30 27 1 26 28
M  V30 28 1 27 29
M  V30 29 1 16 21 CFG=3
M  V30 30 1 18 24
M  V30 31 1 20 25
M  V30 32 1 22 23
M  V30 33 1 28 29
M  V30 END BOND
M  V30 BEGIN COLLECTION
M  V30 MDLV30/STEABS ATOMS=(3 5 15 16)
M  V30 END COLLECTION
M  V30 END CTAB
M  END
>  <Molecule Name>
_c001

>  <status>
-

>  <cas>
47608-32-2

>  <name>
TROSPIUM

>  <ID>
919

>  <Smiles>
OC(C(O[C@H]1C[C@H](CC2)[N+]3(CCCC3)[C@H]2C1)=O)(c1ccccc1)c1ccccc1

$$$$

Actelion Java MolfileCreator 2.0

  0  0  0  0  0  0              0 V3000
M  V30 BEGIN CTAB
M  V30 COUNTS 28 29 0 0 0
M  V30 BEGIN ATOM
M  V30 1 O 11.6913 0.0 0.0 0
M  V30 2 C 10.3923 -0.75 0.0 0
M  V30 3 N 9.0932 0.0 0.0 0
M  V30 4 C 10.3923 -2.25 0.0 0
M  V30 5 C 7.7942 -0.75 0.0 0 CFG=2
M  V30 6 N 9.0932 -3.0 0.0 0
M  V30 7 C 11.6913 -2.9999 0.0 0
M  V30 8 C 6.4951 0.0 0.0 0
M  V30 9 C 7.7942 -2.25 0.0 0
M  V30 10 C 9.0932 -4.5 0.0 0
M  V30 11 N 11.6913 -4.5 0.0 0
M  V30 12 O 6.4951 1.5 0.0 0
M  V30 13 N 5.1961 -0.75 0.0 0
M  V30 14 C 6.4951 -2.9999 0.0 0
M  V30 15 C 10.3923 -5.25 0.0 0
M  V30 16 C 3.8971 0.0 0.0 0 CFG=1
M  V30 17 C 6.4951 -4.4999 0.0 0
M  V30 18 C 5.1961 -2.2499 0.0 0
M  V30 19 C 2.598 -0.75 0.0 0
M  V30 20 B 3.8971 1.5 0.0 0
M  V30 21 C 5.1961 -5.2499 0.0 0
M  V30 22 C 3.8971 -2.9999 0.0 0
M  V30 23 C 1.299 0.0 0.0 0
M  V30 24 O 5.1961 2.25 0.0 0
M  V30 25 O 2.598 2.25 0.0 0
M  V30 26 C 3.8971 -4.4999 0.0 0
M  V30 27 C 1.299 1.5 0.0 0
M  V30 28 C 0.0 -0.75 0.0 0
M  V30 END ATOM
M  V30 BEGIN BOND
M  V30 1 2 1 2
M  V30 2 1 2 3
M  V30 3 1 2 4
M  V30 4 1 5 3 CFG=1
M  V30 5 2 4 6
M  V30 6 1 4 7
M  V30 7 1 5 8
M  V30 8 1 5 9
M  V30 9 1 6 10
M  V30 10 2 7 11
M  V30 11 2 8 12
M  V30 12 1 8 13
M  V30 13 1 9 14
M  V30 14 2 10 15
M  V30 15 1 16 13 CFG=1
M  V30 16 2 14 17
M  V30 17 1 14 18
M  V30 18 1 16 19
M  V30 19 1 16 20
M  V30 20 1 17 21
M  V30 21 2 18 22
M  V30 22 1 19 23
M  V30 23 1 20 24
M  V30 24 1 20 25
M  V30 25 2 21 26
M  V30 26 1 23 27
M  V30 27 1 23 28
M  V30 28 1 11 15
M  V30 29 1 22 26
M  V30 END BOND
M  V30 BEGIN COLLECTION
M  V30 MDLV30/STERAC1 ATOMS=(2 5 16)
M  V30 END COLLECTION
M  V30 END CTAB
M  END
>  <Molecule Name>


>  <status>
-

>  <cas>
179324-69-7

>  <name>
BORTEZOMIB

>  <ID>
920

>  <Smiles>
CC(C)C[C@@H](B(O)O)NC([C@H](Cc1ccccc1)NC(c1nccnc1)=O)=O

$$$$

Actelion Java MolfileCreator 2.0

  0  0  0  0  0  0              0 V3000
M  V30 BEGIN CTAB
M  V30 COUNTS 16 16 0 0 0
M  V30 BEGIN ATOM
M  V30 1 S 3.8971 0.0 0.0 0
M  V30 2 O 4.6471 1.299 0.0 0
M  V30 3 O 3.1471 1.299 0.0 0
M  V30 4 C 2.598 -0.75 0.0 0
M  V30 5 C 5.1961 -0.75 0.0 0
M  V30 6 C 1.299 0.0 0.0 0
M  V30 7 C 6.4952 0.0 0.0 0
M  V30 8 N 0.0 -0.75 0.0 0
M  V30 9 C -1.3703 -0.1398 0.0 0
M  V30 10 C -0.1567 -2.2417 0.0 0
M  V30 11 N -1.6821 1.3273 0.0 0 CHG=1
M  V30 12 C -2.374 -1.2546 0.0 0
M  V30 13 N -1.624 -2.5536 0.0 0
M  V30 14 C 0.9579 -3.2454 0.0 0
M  V30 15 O -0.5674 2.331 0.0 0
M  V30 16 O -3.1087 1.7908 0.0 0 CHG=-1
M  V30 END ATOM
M  V30 BEGIN BOND
M  V30 1 2 1 2
M  V30 2 2 1 3
M  V30 3 1 1 4
M  V30 4 1 1 5
M  V30 5 1 4 6
M  V30 6 1 5 7
M  V30 7 1 6 8
M  V30 8 1 8 9
M  V30 9 1 8 10
M  V30 10 1 9 11
M  V30 11 2 9 12
M  V30 12 2 10 13
M  V30 13 1 10 14
M  V30 14 2 11 15
M  V30 15 1 11 16
M  V30 16 1 12 13
M  V30 END BOND
M  V30 END CTAB
M  END
>  <Molecule Name>


>  <status>
-

>  <cas>
19387-91-8

>  <name>
TINIDAZOLE

>  <ID>
921

>  <Smiles>
CCS(CCn1c([N+]([O-])=O)cnc1C)(=O)=O

$$$$

Actelion Java MolfileCreator 2.0

  0  0  0  0  0  0              0 V3000
M  V30 BEGIN CTAB
M  V30 COUNTS 82 88 0 0 0
M  V30 BEGIN ATOM
M  V30 1 O 23.3527 -11.5555 0.0 0
M  V30 2 C 23.3559 -12.9636 0.0 0
M  V30 3 N 24.6581 -13.8466 0.0 0
M  V30 4 C 22.1784 -13.7076 0.0 0 CFG=2
M  V30 5 C 24.4779 -15.159 0.0 0 CFG=1
M  V30 6 C 26.1104 -13.5239 0.0 0
M  V30 7 N 20.9779 -13.6605 0.0 0
M  V30 8 C 22.9109 -15.0763 0.0 0 CFG=1
M  V30 9 C 22.993 -15.7464 0.0 0
M  V30 10 C 25.772 -15.9322 0.0 0 CFG=1
M  V30 11 C 26.8161 -14.851 0.0 0 CFG=2
M  V30 12 C 19.8679 -12.4931 0.0 0
M  V30 13 O 21.8808 -16.3885 0.0 0
M  V30 14 C 24.3055 -15.7701 0.0 0
M  V30 15 O 22.4485 -17.0494 0.0 0
M  V30 16 N 22.0341 -14.5449 0.0 0
M  V30 17 O 26.033 -17.4125 0.0 0
M  V30 18 C 28.3045 -15.0602 0.0 0
M  V30 19 O 20.3603 -11.1632 0.0 0
M  V30 20 C 18.5328 -12.9279 0.0 0 CFG=2
M  V30 21 C 22.8003 -13.1851 0.0 0 CFG=1
M  V30 22 N 18.3236 -14.4164 0.0 0
M  V30 23 C 17.4158 -11.9222 0.0 0 CFG=1
M  V30 24 O 24.3768 -13.2234 0.0 0
M  V30 25 C 22.3072 -11.822 0.0 0 CFG=1
M  V30 26 C 19.6253 -15.1679 0.0 0
M  V30 27 O 17.7283 -10.452 0.0 0
M  V30 28 C 15.9862 -12.3867 0.0 0 CFG=2
M  V30 29 O 23.5251 -10.7424 0.0 0
M  V30 30 C 20.8339 -11.2683 0.0 0
M  V30 31 O 19.7301 -16.6673 0.0 0
M  V30 32 C 20.7895 -14.3125 0.0 0 CFG=2
M  V30 33 O 14.8692 -11.3809 0.0 0
M  V30 34 C 15.6737 -13.8569 0.0 0
M  V30 35 C 20.8526 -9.7314 0.0 0 CFG=2
M  V30 36 N 20.5065 -12.7549 0.0 0
M  V30 37 C 22.3584 -14.3574 0.0 0
M  V30 38 C 14.2442 -14.3214 0.0 0
M  V30 39 C 16.7907 -14.8626 0.0 0
M  V30 40 N 19.5255 -9.0184 0.0 0
M  V30 41 C 22.1781 -9.111 0.0 0
M  V30 42 C 21.2549 -11.6458 0.0 0
M  V30 43 C 21.6748 -12.0783 0.0 0
M  V30 44 C 22.8596 -12.7254 0.0 0 CFG=1
M  V30 45 C 13.9317 -15.7916 0.0 0
M  V30 46 C 16.4782 -16.3329 0.0 0
M  V30 47 C 19.5255 -7.5153 0.0 0
M  V30 48 O 22.3873 -7.6226 0.0 0
M  V30 49 N 23.2805 -10.0769 0.0 0
M  V30 50 O 20.4644 -10.3203 0.0 0
M  V30 51 C 22.8544 -11.564 0.0 0 CFG=2
M  V30 52 O 24.2872 -12.3671 0.0 0
M  V30 53 C 15.0487 -16.7973 0.0 0
M  V30 54 O 20.8272 -6.7638 0.0 0
M  V30 55 C 18.2238 -6.7638 0.0 0
M  V30 56 C 23.7418 -12.7161 0.0 0 CFG=1
M  V30 57 O 14.7362 -18.2676 0.0 0
M  V30 58 C 18.2238 -5.2607 0.0 0
M  V30 59 C 16.9221 -7.5153 0.0 0
M  V30 60 O 23.0964 -14.1259 0.0 0
M  V30 61 C 25.1594 -12.5881 0.0 0
M  V30 62 C 16.9221 -4.5092 0.0 0
M  V30 63 C 15.6204 -6.7638 0.0 0
M  V30 64 C 15.6204 -5.2607 0.0 0
M  V30 65 C 14.3187 -4.5092 0.0 0
M  V30 66 C 14.3187 -3.0061 0.0 0
M  V30 67 C 13.017 -5.2607 0.0 0
M  V30 68 C 13.017 -2.2546 0.0 0
M  V30 69 C 11.7153 -4.5092 0.0 0
M  V30 70 C 11.7153 -3.0061 0.0 0
M  V30 71 C 10.4136 -2.2546 0.0 0
M  V30 72 C 10.4136 -0.7515 0.0 0
M  V30 73 C 9.1119 -3.0061 0.0 0
M  V30 74 C 9.1119 0.0 0.0 0
M  V30 75 C 7.8102 -2.2546 0.0 0
M  V30 76 C 7.8102 -0.7515 0.0 0
M  V30 77 O 6.5085 0.0 0.0 0
M  V30 78 C 5.2068 -0.7515 0.0 0
M  V30 79 C 3.9051 0.0 0.0 0
M  V30 80 C 2.6034 -0.7515 0.0 0
M  V30 81 C 1.3017 0.0 0.0 0
M  V30 82 C 0.0 -0.7515 0.0 0
M  V30 END ATOM
M  V30 BEGIN BOND
M  V30 1 2 1 2
M  V30 2 1 2 3
M  V30 3 1 4 2
M  V30 4 1 5 3 CFG=3
M  V30 5 1 3 6
M  V30 6 1 4 7 CFG=1
M  V30 7 1 8 4
M  V30 8 1 5 9
M  V30 9 1 10 5
M  V30 10 1 11 6
M  V30 11 1 7 12
M  V30 12 1 8 13 CFG=3
M  V30 13 1 8 14
M  V30 14 2 9 15
M  V30 15 1 9 16
M  V30 16 1 10 17 CFG=1
M  V30 17 1 11 18 CFG=1
M  V30 18 2 12 19
M  V30 19 1 20 12
M  V30 20 1 21 16
M  V30 21 1 20 22 CFG=3
M  V30 22 1 23 20
M  V30 23 1 21 24 CFG=3
M  V30 24 1 25 21
M  V30 25 1 22 26
M  V30 26 1 23 27 CFG=3
M  V30 27 1 28 23
M  V30 28 1 25 29 CFG=3
M  V30 29 1 25 30
M  V30 30 2 26 31
M  V30 31 1 32 26
M  V30 32 1 28 33 CFG=1
M  V30 33 1 28 34
M  V30 34 1 35 30
M  V30 35 1 32 36 CFG=3
M  V30 36 1 32 37
M  V30 37 2 34 38
M  V30 38 1 34 39
M  V30 39 1 35 40 CFG=3
M  V30 40 1 35 41
M  V30 41 1 36 42
M  V30 42 1 36 43
M  V30 43 1 44 37
M  V30 44 1 38 45
M  V30 45 2 39 46
M  V30 46 1 40 47
M  V30 47 2 41 48
M  V30 48 1 41 49
M  V30 49 2 42 50
M  V30 50 1 51 42
M  V30 51 1 44 52 CFG=1
M  V30 52 2 45 53
M  V30 53 2 47 54
M  V30 54 1 47 55
M  V30 55 1 56 51
M  V30 56 1 53 57
M  V30 57 2 55 58
M  V30 58 1 55 59
M  V30 59 1 56 60 CFG=3
M  V30 60 1 56 61
M  V30 61 1 58 62
M  V30 62 2 59 63
M  V30 63 2 62 64
M  V30 64 1 64 65
M  V30 65 2 65 66
M  V30 66 1 65 67
M  V30 67 1 66 68
M  V30 68 2 67 69
M  V30 69 2 68 70
M  V30 70 1 70 71
M  V30 71 2 71 72
M  V30 72 1 71 73
M  V30 73 1 72 74
M  V30 74 2 73 75
M  V30 75 2 74 76
M  V30 76 1 76 77
M  V30 77 1 77 78
M  V30 78 1 78 79
M  V30 79 1 79 80
M  V30 80 1 80 81
M  V30 81 1 81 82
M  V30 82 1 10 11
M  V30 83 1 43 44
M  V30 84 1 46 53
M  V30 85 1 51 49 CFG=3
M  V30 86 1 63 64
M  V30 87 1 69 70
M  V30 88 1 75 76
M  V30 END BOND
M  V30 BEGIN COLLECTION
M  V30 MDLV30/STERAC1 ATOMS=(15 4 5 8 10 11 20 21 23 25 28 32 35 44 51 56)
M  V30 END COLLECTION
M  V30 END CTAB
M  END
>  <Molecule Name>


>  <status>
-

>  <cas>
166663-25-8

>  <name>
ANIDULAFUNGIN

>  <ID>
922

>  <Smiles>
CCCCCOc(cc1)ccc1-c(cc1)ccc1-c(cc1)ccc1C(N[C@@H](C[C@@H]([C@@H](NC([C@@H]([C@@H]([C@H](C)C1)O)N1C([C@@H]([C@H](C)O)NC([C@@H]([C@H]([C@@H](c(cc1)ccc1O)O)O)NC([C@@H](C[C@@H](C1)O)N1C([C@@H]([C@H](C)O)N1)=O)=O)=O)=O)=O)O)O)C1=O)=O

$$$$

Actelion Java MolfileCreator 2.0

  0  0  0  0  0  0              0 V3000
M  V30 BEGIN CTAB
M  V30 COUNTS 39 44 0 0 0
M  V30 BEGIN ATOM
M  V30 1 O 11.7799 8.9491 0.0 0
M  V30 2 C 11.1691 7.5772 0.0 0
M  V30 3 C 12.0517 6.3624 0.0 0
M  V30 4 C 9.6756 7.4203 0.0 0
M  V30 5 C 11.4409 4.9905 0.0 0
M  V30 6 C 9.0648 6.0484 0.0 0
M  V30 7 C 9.9475 4.8335 0.0 0 CFG=2
M  V30 8 C 12.3236 3.7756 0.0 0
M  V30 9 C 9.3367 3.4617 0.0 0 CFG=1
M  V30 10 C 8.454 4.6766 0.0 0
M  V30 11 C 11.7128 2.4038 0.0 0
M  V30 12 C 7.8432 3.3047 0.0 0 CFG=1
M  V30 13 C 10.2194 2.2468 0.0 0 CFG=1
M  V30 14 O 6.9606 4.5196 0.0 0
M  V30 15 C 7.2325 1.9329 0.0 0
M  V30 16 C 9.6086 0.8749 0.0 0 CFG=1
M  V30 17 C 8.1151 0.718 0.0 0 CFG=1
M  V30 18 C 10.2194 -0.4968 0.0 0
M  V30 19 C 7.8029 -0.7508 0.0 0 CFG=1
M  V30 20 C 6.6998 0.5567 0.0 0
M  V30 21 C 9.1034 -1.5016 0.0 0 CFG=2
M  V30 22 O 6.6869 -1.7556 0.0 0
M  V30 23 C 6.4757 -0.0754 0.0 0
M  V30 24 O 8.7912 -2.9705 0.0 0
M  V30 25 C 7.2977 -3.1275 0.0 0 CFG=1
M  V30 26 O 6.5024 1.5016 0.0 0
M  V30 27 C 5.2019 -0.7508 0.0 0
M  V30 28 C 6.5469 -4.428 0.0 0
M  V30 29 O 3.9014 0.0 0.0 0
M  V30 30 C 5.0452 -4.428 0.0 0
M  V30 31 C 7.2977 -5.7284 0.0 0
M  V30 32 C 2.6009 -0.7508 0.0 0
M  V30 33 C 4.2944 -5.7284 0.0 0
M  V30 34 C 6.5469 -7.0289 0.0 0
M  V30 35 O 2.6009 -2.2525 0.0 0
M  V30 36 C 1.3004 0.0 0.0 0
M  V30 37 C 5.0452 -7.0289 0.0 0
M  V30 38 C 1.3004 1.5016 0.0 0
M  V30 39 C 0.0 -0.7508 0.0 0
M  V30 END ATOM
M  V30 BEGIN BOND
M  V30 1 2 1 2
M  V30 2 1 2 3
M  V30 3 1 2 4
M  V30 4 2 3 5
M  V30 5 2 4 6
M  V30 6 1 7 5
M  V30 7 1 5 8
M  V30 8 1 9 7
M  V30 9 1 7 10 CFG=3
M  V30 10 1 8 11
M  V30 11 1 9 12 CFG=3
M  V30 12 1 13 9
M  V30 13 1 12 14 CFG=3
M  V30 14 1 12 15
M  V30 15 1 16 13
M  V30 16 1 17 15
M  V30 17 1 16 18 CFG=3
M  V30 18 1 19 17
M  V30 19 1 17 20 CFG=3
M  V30 20 1 21 18
M  V30 21 1 19 22
M  V30 22 1 19 23 CFG=3
M  V30 23 1 21 24 CFG=1
M  V30 24 1 25 22
M  V30 25 2 23 26
M  V30 26 1 23 27
M  V30 27 1 25 28 CFG=1
M  V30 28 1 27 29
M  V30 29 1 28 30
M  V30 30 1 28 31
M  V30 31 1 29 32
M  V30 32 1 30 33
M  V30 33 1 31 34
M  V30 34 2 32 35
M  V30 35 1 32 36
M  V30 36 1 33 37
M  V30 37 1 36 38
M  V30 38 1 36 39
M  V30 39 1 6 7
M  V30 40 1 13 11 CFG=1
M  V30 41 1 16 17
M  V30 42 1 19 21
M  V30 43 1 24 25
M  V30 44 1 34 37
M  V30 END BOND
M  V30 BEGIN COLLECTION
M  V30 MDLV30/STERAC1 ATOMS=(9 7 9 12 13 16 17 19 21 25)
M  V30 END COLLECTION
M  V30 END CTAB
M  END
>  <Molecule Name>


>  <status>
-

>  <cas>
126544-47-6

>  <name>
CICLESONIDE

>  <ID>
923

>  <Smiles>
CC(C)C(OCC([C@]12O[C@H](C3CCCCC3)O[C@@H]2C[C@@H]([C@H](CC2)[C@H]3[C@@](C)(C=C4)C2=CC4=O)[C@]1(C)C[C@@H]3O)=O)=O

$$$$

Actelion Java MolfileCreator 2.0

  0  0  0  0  0  0              0 V3000
M  V30 BEGIN CTAB
M  V30 COUNTS 20 21 0 0 0
M  V30 BEGIN ATOM
M  V30 1 Br 6.9282 4.5 0.0 0
M  V30 2 C 6.0621 4.0 0.0 0
M  V30 3 C 5.1961 4.5 0.0 0
M  V30 4 C 6.0621 3.0 0.0 0
M  V30 5 C 4.3301 4.0 0.0 0
M  V30 6 C 5.1961 2.5 0.0 0
M  V30 7 C 4.3301 3.0 0.0 0
M  V30 8 C 3.4641 2.5 0.0 0
M  V30 9 O 2.598 3.0 0.0 0
M  V30 10 C 3.4641 1.5 0.0 0
M  V30 11 C 2.598 1.0 0.0 0
M  V30 12 C 4.3301 1.0 0.0 0
M  V30 13 N 1.732 1.5 0.0 0
M  V30 14 C 2.598 0.0 0.0 0
M  V30 15 C 4.3301 0.0 0.0 0
M  V30 16 C 3.4641 -0.4999 0.0 0
M  V30 17 C 1.732 -0.5 0.0 0
M  V30 18 C 0.866 0.0 0.0 0
M  V30 19 O 0.866 1.0 0.0 0
M  V30 20 O 0.0 -0.5 0.0 0 CHG=-1
M  V30 END ATOM
M  V30 BEGIN BOND
M  V30 1 1 1 2
M  V30 2 2 2 3
M  V30 3 1 2 4
M  V30 4 1 3 5
M  V30 5 2 4 6
M  V30 6 2 5 7
M  V30 7 1 7 8
M  V30 8 2 8 9
M  V30 9 1 8 10
M  V30 10 2 10 11
M  V30 11 1 10 12
M  V30 12 1 11 13
M  V30 13 1 11 14
M  V30 14 2 12 15
M  V30 15 2 14 16
M  V30 16 1 14 17
M  V30 17 1 17 18
M  V30 18 2 18 19
M  V30 19 1 18 20
M  V30 20 1 6 7
M  V30 21 1 15 16
M  V30 END BOND
M  V30 END CTAB
M  END
>  <Molecule Name>


>  <status>
-

>  <cas>
91714-94-2

>  <name>
BROMFENAC

>  <ID>
924

>  <Smiles>
Nc(c(CC([O-])=O)ccc1)c1C(c(cc1)ccc1Br)=O

$$$$
_c001
Actelion Java MolfileCreator 2.0

  0  0  0  0  0  0              0 V3000
M  V30 BEGIN CTAB
M  V30 COUNTS 20 22 0 0 0
M  V30 BEGIN ATOM
M  V30 1 Cl 8.3675 -6.0777 0.0 0
M  V30 2 C 8.5243 -4.5859 0.0 0
M  V30 3 N 9.8946 -3.9758 0.0 0
M  V30 4 N 7.3107 -3.7043 0.0 0
M  V30 5 C 10.0514 -2.4841 0.0 0
M  V30 6 C 7.4675 -2.2125 0.0 0
M  V30 7 N 11.4217 -1.874 0.0 0
M  V30 8 C 8.8378 -1.6024 0.0 0
M  V30 9 N 6.4638 -1.0978 0.0 0
M  V30 10 N 8.681 -0.1106 0.0 0
M  V30 11 C 7.2138 0.2012 0.0 0
M  V30 12 C 4.972 -1.2546 0.0 0 CFG=1
M  V30 13 O 3.9683 -0.1398 0.0 0
M  V30 14 C 4.222 -2.5536 0.0 0 CFG=2
M  V30 15 C 2.598 -0.75 0.0 0 CFG=2
M  V30 16 F 4.8321 -3.9239 0.0 0
M  V30 17 C 2.7548 -2.2417 0.0 0 CFG=2
M  V30 18 C 1.299 0.0 0.0 0
M  V30 19 O 1.6401 -3.2454 0.0 0
M  V30 20 O 0.0 -0.75 0.0 0
M  V30 END ATOM
M  V30 BEGIN BOND
M  V30 1 1 1 2
M  V30 2 2 2 3
M  V30 3 1 2 4
M  V30 4 1 3 5
M  V30 5 2 4 6
M  V30 6 1 5 7
M  V30 7 2 5 8
M  V30 8 1 6 9
M  V30 9 1 8 10
M  V30 10 1 9 11
M  V30 11 1 12 9 CFG=3
M  V30 12 1 12 13
M  V30 13 1 14 12
M  V30 14 1 15 13
M  V30 15 1 14 16 CFG=3
M  V30 16 1 17 14
M  V30 17 1 15 18 CFG=3
M  V30 18 1 17 19 CFG=1
M  V30 19 1 18 20
M  V30 20 1 6 8
M  V30 21 2 10 11
M  V30 22 1 15 17
M  V30 END BOND
M  V30 BEGIN COLLECTION
M  V30 MDLV30/STERAC1 ATOMS=(4 12 14 15 17)
M  V30 END COLLECTION
M  V30 END CTAB
M  END
>  <Molecule Name>
_c001

>  <status>
-

>  <cas>
123318-82-1

>  <name>
CLOFARABINE

>  <ID>
925

>  <Smiles>
Nc1c2ncn([C@H]([C@@H]3F)O[C@@H](CO)[C@@H]3O)c2nc(Cl)n1

$$$$

Actelion Java MolfileCreator 2.0

  0  0  0  0  0  0              0 V3000
M  V30 BEGIN CTAB
M  V30 COUNTS 26 28 0 0 0
M  V30 BEGIN ATOM
M  V30 1 F 7.2942 0.866 0.0 0
M  V30 2 C 7.7942 0.0 0.0 0
M  V30 3 F 8.6602 0.4999 0.0 0
M  V30 4 F 8.2942 -0.866 0.0 0
M  V30 5 C 6.9282 -0.5 0.0 0
M  V30 6 C 6.0621 0.0 0.0 0
M  V30 7 C 6.9282 -1.5 0.0 0
M  V30 8 C 5.1961 -0.5 0.0 0
M  V30 9 C 6.0621 -2.0 0.0 0
M  V30 10 C 5.1961 -1.5 0.0 0
M  V30 11 C 4.3301 0.0 0.0 0
M  V30 12 C 3.4641 -0.5 0.0 0
M  V30 13 C 2.598 0.0 0.0 0
M  V30 14 N 1.732 -0.5 0.0 0
M  V30 15 C 0.866 0.0 0.0 0 CFG=2
M  V30 16 C 0.866 1.0 0.0 0
M  V30 17 C 0.0 -0.5 0.0 0
M  V30 18 C 1.732 1.4999 0.0 0
M  V30 19 C 0.0 1.4999 0.0 0
M  V30 20 C 1.732 2.5 0.0 0
M  V30 21 C 2.598 0.9999 0.0 0
M  V30 22 C 0.0 2.5 0.0 0
M  V30 23 C 0.866 3.0 0.0 0
M  V30 24 C 2.598 2.9999 0.0 0
M  V30 25 C 3.4641 1.4999 0.0 0
M  V30 26 C 3.4641 2.4999 0.0 0
M  V30 END ATOM
M  V30 BEGIN BOND
M  V30 1 1 1 2
M  V30 2 1 2 3
M  V30 3 1 2 4
M  V30 4 1 2 5
M  V30 5 2 5 6
M  V30 6 1 5 7
M  V30 7 1 6 8
M  V30 8 2 7 9
M  V30 9 2 8 10
M  V30 10 1 8 11
M  V30 11 1 11 12
M  V30 12 1 12 13
M  V30 13 1 13 14
M  V30 14 1 15 14 CFG=1
M  V30 15 1 15 16
M  V30 16 1 15 17
M  V30 17 1 16 18
M  V30 18 2 16 19
M  V30 19 1 18 20
M  V30 20 2 18 21
M  V30 21 1 19 22
M  V30 22 1 20 23
M  V30 23 2 20 24
M  V30 24 1 21 25
M  V30 25 1 24 26
M  V30 26 1 9 10
M  V30 27 2 22 23
M  V30 28 2 25 26
M  V30 END BOND
M  V30 BEGIN COLLECTION
M  V30 MDLV30/STERAC1 ATOMS=(1 15)
M  V30 END COLLECTION
M  V30 END CTAB
M  END
>  <Molecule Name>


>  <status>
-

>  <cas>
226256-56-0

>  <name>
CINACALCET

>  <ID>
926

>  <Smiles>
CC(c1cccc2ccccc12)NCCCc1cccc(C(F)(F)F)c1

$$$$

Actelion Java MolfileCreator 2.0

  0  0  0  0  0  0              0 V3000
M  V30 BEGIN CTAB
M  V30 COUNTS 38 43 0 0 0
M  V30 BEGIN ATOM
M  V30 1 O 9.0932 1.5 0.0 0
M  V30 2 C 7.7942 2.25 0.0 0
M  V30 3 N 7.7942 3.75 0.0 0
M  V30 4 C 6.4951 1.5 0.0 0
M  V30 5 C 9.1456 4.4008 0.0 0
M  V30 6 C 6.4427 4.4008 0.0 0
M  V30 7 C 5.1961 2.25 0.0 0
M  V30 8 C 6.4951 0.0 0.0 0
M  V30 9 C 9.4794 5.8632 0.0 0
M  V30 10 C 10.2452 3.3805 0.0 0
M  V30 11 C 6.1089 5.8632 0.0 0
M  V30 12 C 3.8971 1.5 0.0 0
M  V30 13 C 5.1961 -0.7499 0.0 0
M  V30 14 C 8.5442 7.0359 0.0 0
M  V30 15 C 10.9128 6.3053 0.0 0
M  V30 16 C 11.6786 3.8226 0.0 0
M  V30 17 C 7.0442 7.0359 0.0 0
M  V30 18 C 3.8971 0.0 0.0 0
M  V30 19 N 9.0077 8.4625 0.0 0
M  V30 20 C 12.0124 5.285 0.0 0
M  V30 21 N 6.5807 8.4625 0.0 0
M  V30 22 N 2.598 -0.75 0.0 0
M  V30 23 C 7.7942 9.3442 0.0 0
M  V30 24 C 1.299 0.0 0.0 0
M  V30 25 C 7.7942 10.8442 0.0 0
M  V30 26 O 1.299 1.5 0.0 0
M  V30 27 C 0.0 -0.75 0.0 0
M  V30 28 C -1.299 0.0 0.0 0
M  V30 29 C 0.0 -2.2499 0.0 0
M  V30 30 C -1.299 1.5 0.0 0
M  V30 31 C -2.598 -0.7499 0.0 0
M  V30 32 C -1.299 -2.9999 0.0 0
M  V30 33 C 0.0 2.2499 0.0 0
M  V30 34 C -2.598 2.25 0.0 0
M  V30 35 C -2.598 -2.2499 0.0 0
M  V30 36 C 0.0 3.7499 0.0 0
M  V30 37 C -2.598 3.75 0.0 0
M  V30 38 C -1.299 4.5 0.0 0
M  V30 END ATOM
M  V30 BEGIN BOND
M  V30 1 2 1 2
M  V30 2 1 2 3
M  V30 3 1 2 4
M  V30 4 1 3 5
M  V30 5 1 3 6
M  V30 6 2 4 7
M  V30 7 1 4 8
M  V30 8 2 5 9
M  V30 9 1 5 10
M  V30 10 1 6 11
M  V30 11 1 7 12
M  V30 12 2 8 13
M  V30 13 1 9 14
M  V30 14 1 9 15
M  V30 15 2 10 16
M  V30 16 1 11 17
M  V30 17 2 12 18
M  V30 18 1 14 19
M  V30 19 2 15 20
M  V30 20 1 17 21
M  V30 21 1 18 22
M  V30 22 2 19 23
M  V30 23 1 22 24
M  V30 24 1 23 25
M  V30 25 2 24 26
M  V30 26 1 24 27
M  V30 27 2 27 28
M  V30 28 1 27 29
M  V30 29 1 28 30
M  V30 30 1 28 31
M  V30 31 2 29 32
M  V30 32 2 30 33
M  V30 33 1 30 34
M  V30 34 2 31 35
M  V30 35 1 33 36
M  V30 36 2 34 37
M  V30 37 2 36 38
M  V30 38 1 13 18
M  V30 39 2 14 17
M  V30 40 1 16 20
M  V30 41 1 21 23
M  V30 42 1 32 35
M  V30 43 1 37 38
M  V30 END BOND
M  V30 END CTAB
M  END
>  <Molecule Name>


>  <status>
-

>  <cas>
210101-16-9

>  <name>
CONIVAPTAN

>  <ID>
927

>  <Smiles>
Cc1nc(-c(cccc2)c2N(CC2)C(c(cc3)ccc3NC(c(cccc3)c3-c3ccccc3)=O)=O)c2[nH]1

$$$$

Actelion Java MolfileCreator 2.0

  0  0  0  0  0  0              0 V3000
M  V30 BEGIN CTAB
M  V30 COUNTS 6 5 0 0 0
M  V30 BEGIN ATOM
M  V30 1 O 2.598 0.0 0.0 0
M  V30 2 C 1.732 -0.5 0.0 0
M  V30 3 O 1.732 -1.5 0.0 0 CHG=-1
M  V30 4 C 0.866 0.0 0.0 0 CFG=1
M  V30 5 O 0.866 1.0 0.0 0
M  V30 6 C 0.0 -0.5 0.0 0
M  V30 END ATOM
M  V30 BEGIN BOND
M  V30 1 2 1 2
M  V30 2 1 2 3
M  V30 3 1 4 2
M  V30 4 1 4 5 CFG=3
M  V30 5 1 4 6
M  V30 END BOND
M  V30 BEGIN COLLECTION
M  V30 MDLV30/STERAC1 ATOMS=(1 4)
M  V30 END COLLECTION
M  V30 END CTAB
M  END
>  <Molecule Name>


>  <status>
-

>  <cas>
50-21-5

>  <name>
LACTIC ACID

>  <ID>
928

>  <Smiles>
CC(C([O-])=O)O

$$$$

Actelion Java MolfileCreator 2.0

  0  0  0  0  0  0              0 V3000
M  V30 BEGIN CTAB
M  V30 COUNTS 29 32 0 0 0
M  V30 BEGIN ATOM
M  V30 1 F 8.6602 -3.5 0.0 0
M  V30 2 C 7.7942 -2.9999 0.0 0
M  V30 3 C 7.7942 -1.9999 0.0 0
M  V30 4 C 6.9282 -3.4999 0.0 0
M  V30 5 C 6.9282 -1.4999 0.0 0
M  V30 6 C 6.0621 -2.9999 0.0 0
M  V30 7 C 6.0621 -1.9999 0.0 0
M  V30 8 C 6.9282 -0.5 0.0 0
M  V30 9 O 5.1961 -1.4999 0.0 0
M  V30 10 C 6.0621 0.0 0.0 0
M  V30 11 C 5.1961 -0.5 0.0 0 CFG=1
M  V30 12 C 4.3301 0.0 0.0 0 CFG=1
M  V30 13 O 4.3301 1.0 0.0 0
M  V30 14 C 3.4641 -0.5 0.0 0
M  V30 15 N 2.598 0.0 0.0 0
M  V30 16 C 1.732 -0.5 0.0 0
M  V30 17 C 0.866 0.0 0.0 0 CFG=2
M  V30 18 O 0.866 1.0 0.0 0
M  V30 19 C 0.0 -0.5 0.0 0 CFG=2
M  V30 20 O -0.866 0.0 0.0 0
M  V30 21 C 0.0 -1.4999 0.0 0
M  V30 22 C -1.732 -0.4999 0.0 0
M  V30 23 C -0.866 -1.9999 0.0 0
M  V30 24 C -1.732 -1.4999 0.0 0
M  V30 25 C -2.598 0.0 0.0 0
M  V30 26 C -2.598 -1.9999 0.0 0
M  V30 27 C -3.4641 -0.4999 0.0 0
M  V30 28 C -3.4641 -1.4999 0.0 0
M  V30 29 F -4.3301 -1.9999 0.0 0
M  V30 END ATOM
M  V30 BEGIN BOND
M  V30 1 1 1 2
M  V30 2 2 2 3
M  V30 3 1 2 4
M  V30 4 1 3 5
M  V30 5 2 4 6
M  V30 6 2 5 7
M  V30 7 1 5 8
M  V30 8 1 7 9
M  V30 9 1 8 10
M  V30 10 1 11 9 CFG=3
M  V30 11 1 12 11
M  V30 12 1 12 13 CFG=3
M  V30 13 1 12 14
M  V30 14 1 14 15
M  V30 15 1 15 16
M  V30 16 1 17 16
M  V30 17 1 17 18 CFG=1
M  V30 18 1 19 17
M  V30 19 1 19 20 CFG=1
M  V30 20 1 19 21
M  V30 21 1 20 22
M  V30 22 1 21 23
M  V30 23 2 22 24
M  V30 24 1 22 25
M  V30 25 1 24 26
M  V30 26 2 25 27
M  V30 27 2 26 28
M  V30 28 1 28 29
M  V30 29 1 6 7
M  V30 30 1 10 11
M  V30 31 1 23 24
M  V30 32 1 27 28
M  V30 END BOND
M  V30 BEGIN COLLECTION
M  V30 MDLV30/STERAC1 ATOMS=(4 11 12 17 19)
M  V30 END COLLECTION
M  V30 END CTAB
M  END
>  <Molecule Name>


>  <status>
-

>  <cas>
118457-14-0

>  <name>
NEBIVOLOL

>  <ID>
929

>  <Smiles>
O[C@@H](CNC[C@@H]([C@H](CC1)Oc(cc2)c1cc2F)O)[C@@H](CC1)Oc(cc2)c1cc2F

$$$$

Actelion Java MolfileCreator 2.0

  0  0  0  0  0  0              0 V3000
M  V30 BEGIN CTAB
M  V30 COUNTS 29 31 0 0 0
M  V30 BEGIN ATOM
M  V30 1 O 3.4641 -0.5 0.0 0
M  V30 2 C 4.3301 0.0 0.0 0
M  V30 3 C 2.598 0.0 0.0 0
M  V30 4 C 5.1961 -0.4999 0.0 0
M  V30 5 C 4.3301 0.9999 0.0 0
M  V30 6 C 1.732 -0.5 0.0 0
M  V30 7 O 5.1961 -1.5 0.0 0
M  V30 8 C 6.0621 0.0 0.0 0
M  V30 9 C 5.1961 1.4999 0.0 0
M  V30 10 O 0.866 0.0 0.0 0
M  V30 11 C 4.3301 -2.0 0.0 0
M  V30 12 C 6.0621 1.0 0.0 0
M  V30 13 N 5.1961 2.4999 0.0 0
M  V30 14 C 0.0 -0.5 0.0 0
M  V30 15 C 4.3301 -3.0 0.0 0
M  V30 16 C 6.9282 1.5 0.0 0
M  V30 17 C 6.0621 3.0 0.0 0
M  V30 18 O 3.4641 -3.5 0.0 0
M  V30 19 N 6.9282 2.5 0.0 0
M  V30 20 N 7.7942 1.0 0.0 0
M  V30 21 C 3.4641 -4.5 0.0 0
M  V30 22 C 8.6602 1.4999 0.0 0
M  V30 23 C 9.5262 0.9999 0.0 0
M  V30 24 C 8.6602 2.4999 0.0 0
M  V30 25 C 10.3923 1.4999 0.0 0
M  V30 26 C 9.5262 2.9999 0.0 0
M  V30 27 C 11.2583 0.9999 0.0 0
M  V30 28 C 10.3923 2.4999 0.0 0
M  V30 29 C 12.1243 0.4999 0.0 0
M  V30 END ATOM
M  V30 BEGIN BOND
M  V30 1 1 1 2
M  V30 2 1 1 3
M  V30 3 1 2 4
M  V30 4 2 2 5
M  V30 5 1 3 6
M  V30 6 1 4 7
M  V30 7 2 4 8
M  V30 8 1 5 9
M  V30 9 1 6 10
M  V30 10 1 7 11
M  V30 11 1 8 12
M  V30 12 2 9 13
M  V30 13 1 10 14
M  V30 14 1 11 15
M  V30 15 2 12 16
M  V30 16 1 13 17
M  V30 17 1 15 18
M  V30 18 1 16 19
M  V30 19 1 16 20
M  V30 20 1 18 21
M  V30 21 1 20 22
M  V30 22 2 22 23
M  V30 23 1 22 24
M  V30 24 1 23 25
M  V30 25 2 24 26
M  V30 26 1 25 27
M  V30 27 2 25 28
M  V30 28 3 27 29
M  V30 29 1 9 12
M  V30 30 2 17 19
M  V30 31 1 26 28
M  V30 END BOND
M  V30 END CTAB
M  END
>  <Molecule Name>


>  <status>
-

>  <cas>
183321-74-6

>  <name>
ERLOTINIB

>  <ID>
930

>  <Smiles>
COCCOc1cc2c(Nc3cc(C#C)ccc3)ncnc2cc1OCCOC

$$$$

Actelion Java MolfileCreator 2.0

  0  0  0  0  0  0              0 V3000
M  V30 BEGIN CTAB
M  V30 COUNTS 31 33 0 0 0
M  V30 BEGIN ATOM
M  V30 1 O 3.4641 -1.5 0.0 0
M  V30 2 C 3.4641 -0.5 0.0 0
M  V30 3 N 2.598 0.0 0.0 0
M  V30 4 C 4.3301 0.0 0.0 0 CFG=1
M  V30 5 C 1.732 -0.5 0.0 0
M  V30 6 C 5.1961 -0.5 0.0 0
M  V30 7 C 4.3301 1.0 0.0 0
M  V30 8 C 0.866 0.0 0.0 0
M  V30 9 N 6.0621 0.0 0.0 0
M  V30 10 C 3.4641 1.5 0.0 0
M  V30 11 O 0.866 1.0 0.0 0
M  V30 12 O 0.0 -0.5 0.0 0 CHG=-1
M  V30 13 C 6.9282 -0.5 0.0 0
M  V30 14 C 6.0621 0.9999 0.0 0
M  V30 15 C 3.4641 2.5 0.0 0
M  V30 16 C 2.598 1.0 0.0 0
M  V30 17 C 7.7942 0.0 0.0 0 CFG=2
M  V30 18 C 6.9282 1.4999 0.0 0
M  V30 19 C 2.598 3.0 0.0 0
M  V30 20 C 1.732 1.5 0.0 0
M  V30 21 C 7.7942 0.9999 0.0 0 CFG=2
M  V30 22 C 8.6602 -0.5 0.0 0
M  V30 23 C 1.732 2.5 0.0 0
M  V30 24 C 8.6602 1.4999 0.0 0
M  V30 25 C 8.6602 0.4999 0.0 0
M  V30 26 C 9.5262 0.9999 0.0 0
M  V30 27 C 8.6602 2.4999 0.0 0
M  V30 28 C 10.3923 1.4999 0.0 0
M  V30 29 C 9.5262 2.9999 0.0 0
M  V30 30 O 11.2583 0.9999 0.0 0
M  V30 31 C 10.3923 2.4999 0.0 0
M  V30 END ATOM
M  V30 BEGIN BOND
M  V30 1 2 1 2
M  V30 2 1 2 3
M  V30 3 1 4 2
M  V30 4 1 3 5
M  V30 5 1 4 6 CFG=3
M  V30 6 1 4 7
M  V30 7 1 5 8
M  V30 8 1 6 9
M  V30 9 1 7 10
M  V30 10 2 8 11
M  V30 11 1 8 12
M  V30 12 1 9 13
M  V30 13 1 9 14
M  V30 14 2 10 15
M  V30 15 1 10 16
M  V30 16 1 17 13
M  V30 17 1 14 18
M  V30 18 1 15 19
M  V30 19 2 16 20
M  V30 20 1 21 17
M  V30 21 1 17 22 CFG=3
M  V30 22 2 19 23
M  V30 23 1 21 24
M  V30 24 1 21 25 CFG=1
M  V30 25 2 24 26
M  V30 26 1 24 27
M  V30 27 1 26 28
M  V30 28 2 27 29
M  V30 29 1 28 30
M  V30 30 2 28 31
M  V30 31 1 18 21
M  V30 32 1 20 23
M  V30 33 1 29 31
M  V30 END BOND
M  V30 BEGIN COLLECTION
M  V30 MDLV30/STERAC1 ATOMS=(3 4 17 21)
M  V30 END COLLECTION
M  V30 END CTAB
M  END
>  <Molecule Name>


>  <status>
-

>  <cas>
156053-89-3

>  <name>
ALVIMOPAN

>  <ID>
931

>  <Smiles>
C[C@H](CN(C[C@@H](Cc1ccccc1)C(NCC([O-])=O)=O)CC1)[C@@]1(C)c1cc(O)ccc1

$$$$
_c001
Actelion Java MolfileCreator 2.0

  0  0  0  0  0  0              0 V3000
M  V30 BEGIN CTAB
M  V30 COUNTS 26 27 0 0 0
M  V30 BEGIN ATOM
M  V30 1 O 5.1961 -0.5 0.0 0
M  V30 2 C 4.3301 0.0 0.0 0
M  V30 3 O 4.3301 1.0 0.0 0 CHG=-1
M  V30 4 C 3.4641 -0.5 0.0 0
M  V30 5 C 2.598 0.0 0.0 0
M  V30 6 C 1.732 -0.5 0.0 0
M  V30 7 C 0.866 0.0 0.0 0
M  V30 8 C 0.0 -0.5 0.0 0
M  V30 9 C -0.9135 -0.0932 0.0 0
M  V30 10 C -0.1045 -1.4945 0.0 0
M  V30 11 C -1.5826 -0.8364 0.0 0 CFG=2
M  V30 12 C -1.0826 -1.7024 0.0 0 CFG=1
M  V30 13 C -2.5608 -1.0443 0.0 0 CFG=2
M  V30 14 C -1.7518 -2.4455 0.0 0
M  V30 15 C -3.3039 -0.3751 0.0 0
M  V30 16 C -2.6653 -2.0388 0.0 0 CFG=2
M  V30 17 C -3.096 0.6029 0.0 0
M  V30 18 O -3.5313 -2.5388 0.0 0
M  V30 19 C -3.8392 1.272 0.0 0 CFG=2
M  V30 20 O -4.7902 0.963 0.0 0
M  V30 21 C -3.6312 2.2502 0.0 0 CFG=1
M  V30 22 C -2.6802 2.5592 0.0 0
M  V30 23 C -4.3744 2.9193 0.0 0
M  V30 24 C -2.4723 3.5374 0.0 0
M  V30 25 C -2.2644 4.5155 0.0 0
M  V30 26 C -2.0564 5.4936 0.0 0
M  V30 END ATOM
M  V30 BEGIN BOND
M  V30 1 2 1 2
M  V30 2 1 2 3
M  V30 3 1 2 4
M  V30 4 1 4 5
M  V30 5 1 5 6
M  V30 6 1 6 7
M  V30 7 2 7 8
M  V30 8 1 8 9
M  V30 9 1 8 10
M  V30 10 1 11 9 CFG=3
M  V30 11 1 12 10 CFG=3
M  V30 12 1 13 11
M  V30 13 1 12 14
M  V30 14 1 13 15 CFG=1
M  V30 15 1 16 13
M  V30 16 2 15 17
M  V30 17 1 16 18 CFG=3
M  V30 18 1 19 17
M  V30 19 1 19 20 CFG=3
M  V30 20 1 21 19
M  V30 21 1 21 22
M  V30 22 1 21 23 CFG=3
M  V30 23 1 22 24
M  V30 24 3 24 25
M  V30 25 1 25 26
M  V30 26 1 11 12
M  V30 27 1 14 16
M  V30 END BOND
M  V30 BEGIN COLLECTION
M  V30 MDLV30/STERAC1 ATOMS=(6 11 12 13 16 19 21)
M  V30 END COLLECTION
M  V30 END CTAB
M  END
>  <Molecule Name>
_c001

>  <status>
-

>  <cas>
78919-13-8

>  <name>
ILOPROST

>  <ID>
932

>  <Smiles>
C[C@H](CC#CC)[C@H](/C=C/[C@@H]([C@H](C1)[C@@H](C2)C/C1=C\CCCC([O-])=O)[C@H]2O)O

$$$$

Actelion Java MolfileCreator 2.0

  0  0  0  0  0  0              0 V3000
M  V30 BEGIN CTAB
M  V30 COUNTS 19 21 0 0 0
M  V30 BEGIN ATOM
M  V30 1 O 3.4641 -1.5 0.0 0
M  V30 2 C 3.4641 -0.5 0.0 0
M  V30 3 N 2.598 0.0 0.0 0
M  V30 4 C 4.3301 0.0 0.0 0
M  V30 5 C 1.732 -0.5 0.0 0
M  V30 6 C 5.1961 -0.5 0.0 0
M  V30 7 C 0.866 0.0 0.0 0
M  V30 8 C 0.0 -0.5 0.0 0 CFG=2
M  V30 9 C -0.9135 -0.0932 0.0 0
M  V30 10 C -0.1045 -1.4945 0.0 0
M  V30 11 C -1.2225 0.8577 0.0 0
M  V30 12 C -1.5826 -0.8364 0.0 0
M  V30 13 C -1.0826 -1.7024 0.0 0
M  V30 14 C -2.2007 1.0657 0.0 0
M  V30 15 C -0.7225 1.7238 0.0 0
M  V30 16 C -2.5608 -0.6284 0.0 0
M  V30 17 O -2.3052 2.0602 0.0 0
M  V30 18 C -2.8698 0.3225 0.0 0
M  V30 19 C -1.3916 2.4669 0.0 0
M  V30 END ATOM
M  V30 BEGIN BOND
M  V30 1 2 1 2
M  V30 2 1 2 3
M  V30 3 1 2 4
M  V30 4 1 3 5
M  V30 5 1 4 6
M  V30 6 1 5 7
M  V30 7 1 8 7 CFG=1
M  V30 8 1 8 9
M  V30 9 1 8 10
M  V30 10 2 9 11
M  V30 11 1 9 12
M  V30 12 1 10 13
M  V30 13 1 11 14
M  V30 14 1 11 15
M  V30 15 2 12 16
M  V30 16 1 14 17
M  V30 17 2 14 18
M  V30 18 1 15 19
M  V30 19 1 12 13
M  V30 20 1 16 18
M  V30 21 1 17 19
M  V30 END BOND
M  V30 BEGIN COLLECTION
M  V30 MDLV30/STERAC1 ATOMS=(1 8)
M  V30 END COLLECTION
M  V30 END CTAB
M  END
>  <Molecule Name>


>  <status>
-

>  <cas>
196597-26-9

>  <name>
RAMELTEON

>  <ID>
933

>  <Smiles>
CCC(NCCC1c2c(CCO3)c3ccc2CC1)=O

$$$$

Actelion Java MolfileCreator 2.0

  0  0  0  0  0  0              0 V3000
M  V30 BEGIN CTAB
M  V30 COUNTS 16 17 0 0 0
M  V30 BEGIN ATOM
M  V30 1 O 4.4902 -2.4544 0.0 0
M  V30 2 C 4.897 -1.5408 0.0 0
M  V30 3 N 5.8915 -1.4363 0.0 0
M  V30 4 N 4.3092 -0.7318 0.0 0
M  V30 5 C 6.2982 -0.5228 0.0 0
M  V30 6 C 4.7159 0.1816 0.0 0
M  V30 7 C 3.3147 -0.8364 0.0 0 CFG=1
M  V30 8 N 5.7105 0.2861 0.0 0
M  V30 9 N 7.2928 -0.4182 0.0 0
M  V30 10 O 2.6455 -0.0932 0.0 0
M  V30 11 C 2.8147 -1.7024 0.0 0
M  V30 12 C 1.732 -0.5 0.0 0 CFG=2
M  V30 13 C 1.8365 -1.4945 0.0 0 CFG=2
M  V30 14 C 0.866 0.0 0.0 0
M  V30 15 O 1.0934 -2.1636 0.0 0
M  V30 16 O 0.0 -0.5 0.0 0
M  V30 END ATOM
M  V30 BEGIN BOND
M  V30 1 2 1 2
M  V30 2 1 2 3
M  V30 3 1 2 4
M  V30 4 2 3 5
M  V30 5 1 4 6
M  V30 6 1 7 4 CFG=3
M  V30 7 1 5 8
M  V30 8 1 5 9
M  V30 9 1 7 10
M  V30 10 1 7 11
M  V30 11 1 12 10
M  V30 12 1 13 11
M  V30 13 1 12 14 CFG=3
M  V30 14 1 13 15 CFG=1
M  V30 15 1 14 16
M  V30 16 2 6 8
M  V30 17 1 12 13
M  V30 END BOND
M  V30 BEGIN COLLECTION
M  V30 MDLV30/STERAC1 ATOMS=(3 7 12 13)
M  V30 END COLLECTION
M  V30 END CTAB
M  END
>  <Molecule Name>


>  <status>
-

>  <cas>
2353-33-5

>  <name>
DECITABINE

>  <ID>
934

>  <Smiles>
NC(N=CN1[C@H](C2)O[C@@H](CO)[C@@H]2O)=NC1=O

$$$$

Actelion Java MolfileCreator 2.0

  0  0  0  0  0  0              0 V3000
M  V30 BEGIN CTAB
M  V30 COUNTS 17 18 0 0 0
M  V30 BEGIN ATOM
M  V30 1 S 1.299 0.0 0.0 0
M  V30 2 O 2.049 1.299 0.0 0
M  V30 3 O 0.549 1.299 0.0 0
M  V30 4 C 2.598 -0.75 0.0 0
M  V30 5 C 0.0 -0.75 0.0 0
M  V30 6 C 2.598 -2.25 0.0 0
M  V30 7 C 3.8971 0.0 0.0 0
M  V30 8 C -1.299 0.0 0.0 0
M  V30 9 C 0.0 -2.25 0.0 0
M  V30 10 C 3.8971 -3.0 0.0 0
M  V30 11 C 5.1961 -0.75 0.0 0
M  V30 12 C -2.598 -0.75 0.0 0
M  V30 13 C -1.299 -3.0 0.0 0
M  V30 14 C 5.1961 -2.25 0.0 0
M  V30 15 C -2.598 -2.25 0.0 0
M  V30 16 N 6.4952 -3.0 0.0 0
M  V30 17 N -3.8971 -3.0 0.0 0
M  V30 END ATOM
M  V30 BEGIN BOND
M  V30 1 2 1 2
M  V30 2 2 1 3
M  V30 3 1 1 4
M  V30 4 1 1 5
M  V30 5 2 4 6
M  V30 6 1 4 7
M  V30 7 2 5 8
M  V30 8 1 5 9
M  V30 9 1 6 10
M  V30 10 2 7 11
M  V30 11 1 8 12
M  V30 12 2 9 13
M  V30 13 2 10 14
M  V30 14 2 12 15
M  V30 15 1 14 16
M  V30 16 1 15 17
M  V30 17 1 11 14
M  V30 18 1 13 15
M  V30 END BOND
M  V30 END CTAB
M  END
>  <Molecule Name>


>  <status>
-

>  <cas>
80-08-0

>  <name>
DAPSONE

>  <ID>
935

>  <Smiles>
Nc(cc1)ccc1S(c(cc1)ccc1N)(=O)=O

$$$$

Actelion Java MolfileCreator 2.0

  0  0  0  0  0  0              0 V3000
M  V30 BEGIN CTAB
M  V30 COUNTS 20 22 0 0 0
M  V30 BEGIN ATOM
M  V30 1 O 7.6144 -1.2493 0.0 0
M  V30 2 C 6.7009 -1.656 0.0 0
M  V30 3 N 6.5964 -2.6505 0.0 0
M  V30 4 C 5.8919 -1.0682 0.0 0
M  V30 5 C 5.6828 -3.0573 0.0 0
M  V30 6 N 5.7873 -0.0737 0.0 0
M  V30 7 C 4.9783 -1.475 0.0 0
M  V30 8 N 4.8738 -2.4695 0.0 0
M  V30 9 N 5.5783 -4.0518 0.0 0
M  V30 10 C 4.8092 0.1341 0.0 0
M  V30 11 N 4.3092 -0.7318 0.0 0
M  V30 12 C 3.3147 -0.8364 0.0 0 CFG=2
M  V30 13 C 2.6455 -0.0932 0.0 0
M  V30 14 C 2.8147 -1.7024 0.0 0
M  V30 15 C 2.8535 0.8848 0.0 0
M  V30 16 C 1.732 -0.5 0.0 0 CFG=1
M  V30 17 C 1.8365 -1.4945 0.0 0 CFG=1
M  V30 18 C 0.866 0.0 0.0 0
M  V30 19 O 1.0934 -2.1636 0.0 0
M  V30 20 O 0.0 -0.5 0.0 0
M  V30 END ATOM
M  V30 BEGIN BOND
M  V30 1 2 1 2
M  V30 2 1 2 3
M  V30 3 1 2 4
M  V30 4 2 3 5
M  V30 5 1 4 6
M  V30 6 2 4 7
M  V30 7 1 5 8
M  V30 8 1 5 9
M  V30 9 2 6 10
M  V30 10 1 7 11
M  V30 11 1 12 11 CFG=1
M  V30 12 1 12 13
M  V30 13 1 12 14
M  V30 14 2 13 15
M  V30 15 1 16 13
M  V30 16 1 17 14
M  V30 17 1 16 18 CFG=1
M  V30 18 1 17 19 CFG=3
M  V30 19 1 18 20
M  V30 20 1 7 8
M  V30 21 1 10 11
M  V30 22 1 16 17
M  V30 END BOND
M  V30 BEGIN COLLECTION
M  V30 MDLV30/STERAC1 ATOMS=(3 12 16 17)
M  V30 END COLLECTION
M  V30 END CTAB
M  END
>  <Molecule Name>


>  <status>
-

>  <cas>
142217-69-4

>  <name>
ENTECAVIR

>  <ID>
936

>  <Smiles>
C=C([C@H](CO)[C@H](C1)O)[C@H]1n1c(NC(N)=NC2=O)c2nc1

$$$$

Actelion Java MolfileCreator 2.0

  0  0  0  0  0  0              0 V3000
M  V30 BEGIN CTAB
M  V30 COUNTS 24 27 0 0 0
M  V30 BEGIN ATOM
M  V30 1 O 0.866 0.0 0.0 0
M  V30 2 C 1.732 -0.5 0.0 0
M  V30 3 C 0.0 -0.5 0.0 0
M  V30 4 C 1.732 -1.5 0.0 0
M  V30 5 C 2.598 0.0 0.0 0
M  V30 6 C 2.598 -2.0 0.0 0
M  V30 7 C 3.4641 -0.5 0.0 0
M  V30 8 C 3.4641 -1.5 0.0 0
M  V30 9 C 2.598 -3.0 0.0 0
M  V30 10 N 4.3301 -2.0 0.0 0
M  V30 11 C 3.4641 -3.5 0.0 0
M  V30 12 C 1.732 -3.4999 0.0 0 CFG=1
M  V30 13 C 4.3301 -3.0 0.0 0
M  V30 14 O 0.866 -2.9999 0.0 0
M  V30 15 C 1.732 -4.4999 0.0 0 CFG=1
M  V30 16 N 0.866 -4.9999 0.0 0 CFG=2
M  V30 17 C 2.598 -5.0 0.0 0
M  V30 18 C 0.9921 -6.0312 0.0 0
M  V30 19 C 0.433 -6.7499 0.0 0
M  V30 20 C 2.598 -6.0 0.0 0 CFG=1
M  V30 21 C 1.6391 -6.4012 0.0 0 CFG=1
M  V30 22 C 1.268 -7.2502 0.0 0
M  V30 23 C 1.7388 -7.507 0.0 0
M  V30 24 C 2.598 -8.0 0.0 0
M  V30 END ATOM
M  V30 BEGIN BOND
M  V30 1 1 1 2
M  V30 2 1 1 3
M  V30 3 2 2 4
M  V30 4 1 2 5
M  V30 5 1 4 6
M  V30 6 2 5 7
M  V30 7 1 6 8
M  V30 8 2 6 9
M  V30 9 2 8 10
M  V30 10 1 9 11
M  V30 11 1 12 9
M  V30 12 1 10 13
M  V30 13 1 12 14 CFG=3
M  V30 14 1 15 12
M  V30 15 1 16 15
M  V30 16 1 15 17 CFG=3
M  V30 17 1 16 18 CFG=1
M  V30 18 1 16 19
M  V30 19 1 20 17 CFG=3
M  V30 20 1 21 18
M  V30 21 1 19 22
M  V30 22 1 21 23 CFG=1
M  V30 23 2 23 24
M  V30 24 1 7 8
M  V30 25 2 11 13
M  V30 26 1 20 21
M  V30 27 1 20 22
M  V30 END BOND
M  V30 BEGIN COLLECTION
M  V30 MDLV30/STERAC1 ATOMS=(5 12 15 16 20 21)
M  V30 END COLLECTION
M  V30 END CTAB
M  END
>  <Molecule Name>


>  <status>
-

>  <cas>
130-95-0

>  <name>
QUININE

>  <ID>
937

>  <Smiles>
COc1cc2c([C@H]([C@H](C[C@@H]3CC4)N4C[C@@H]3C=C)O)ccnc2cc1

$$$$
_c001
Actelion Java MolfileCreator 2.0

  0  0  0  0  0  0              0 V3000
M  V30 BEGIN CTAB
M  V30 COUNTS 42 45 0 0 0
M  V30 BEGIN ATOM
M  V30 1 S 2.598 -0.75 0.0 0
M  V30 2 O 1.848 -2.049 0.0 0
M  V30 3 O 3.348 -2.049 0.0 0
M  V30 4 N 1.299 0.0 0.0 0
M  V30 5 C 3.8971 0.0 0.0 0
M  V30 6 C 0.0 -0.75 0.0 0
M  V30 7 N 5.1961 -0.75 0.0 0
M  V30 8 C 3.8971 1.5 0.0 0
M  V30 9 C -1.299 0.0 0.0 0
M  V30 10 C 0.0 -2.25 0.0 0
M  V30 11 C 6.4951 0.0 0.0 0
M  V30 12 C 5.1961 2.25 0.0 0
M  V30 13 C -2.598 -0.75 0.0 0
M  V30 14 C -1.299 -3.0 0.0 0
M  V30 15 C 6.4951 1.5 0.0 0
M  V30 16 C -2.598 -2.25 0.0 0
M  V30 17 C -3.8971 0.0 0.0 0 CFG=1
M  V30 18 C 7.7942 2.25 0.0 0
M  V30 19 C -5.1961 -0.75 0.0 0
M  V30 20 C -3.8971 1.5 0.0 0
M  V30 21 F 7.0442 3.549 0.0 0
M  V30 22 F 9.0932 3.0 0.0 0
M  V30 23 F 8.5442 0.9509 0.0 0
M  V30 24 C -6.4951 0.0 0.0 0
M  V30 25 C -5.1961 -2.25 0.0 0
M  V30 26 C -5.1961 2.25 0.0 0
M  V30 27 O -6.4951 1.5 0.0 0
M  V30 28 O -7.7942 -0.75 0.0 0
M  V30 29 O -3.8971 -3.0 0.0 0
M  V30 30 C -6.4951 -3.0 0.0 0
M  V30 31 C -7.7942 -2.25 0.0 0 CFG=2
M  V30 32 C -9.0932 -3.0 0.0 0
M  V30 33 C -9.0932 -1.5 0.0 0
M  V30 34 C -10.3923 -2.25 0.0 0
M  V30 35 C -9.0932 0.0 0.0 0
M  V30 36 C -11.6913 -3.0 0.0 0
M  V30 37 C -10.3923 0.75 0.0 0
M  V30 38 C -12.9903 -2.25 0.0 0
M  V30 39 C -11.6913 -4.5 0.0 0
M  V30 40 C -14.2894 -3.0 0.0 0
M  V30 41 C -12.9903 -5.25 0.0 0
M  V30 42 C -14.2894 -4.5 0.0 0
M  V30 END ATOM
M  V30 BEGIN BOND
M  V30 1 2 1 2
M  V30 2 2 1 3
M  V30 3 1 1 4
M  V30 4 1 1 5
M  V30 5 1 4 6
M  V30 6 2 5 7
M  V30 7 1 5 8
M  V30 8 2 6 9
M  V30 9 1 6 10
M  V30 10 1 7 11
M  V30 11 2 8 12
M  V30 12 1 9 13
M  V30 13 2 10 14
M  V30 14 2 11 15
M  V30 15 2 13 16
M  V30 16 1 17 13
M  V30 17 1 15 18
M  V30 18 1 17 19
M  V30 19 1 17 20 CFG=1
M  V30 20 1 18 21
M  V30 21 1 18 22
M  V30 22 1 18 23
M  V30 23 1 19 24
M  V30 24 2 19 25
M  V30 25 1 20 26
M  V30 26 2 24 27
M  V30 27 1 24 28
M  V30 28 1 25 29
M  V30 29 1 25 30
M  V30 30 1 31 28
M  V30 31 1 31 32
M  V30 32 1 31 33 CFG=1
M  V30 33 1 32 34
M  V30 34 1 33 35
M  V30 35 1 34 36
M  V30 36 1 35 37
M  V30 37 2 36 38
M  V30 38 1 36 39
M  V30 39 1 38 40
M  V30 40 2 39 41
M  V30 41 2 40 42
M  V30 42 1 12 15
M  V30 43 1 14 16
M  V30 44 1 30 31
M  V30 45 1 41 42
M  V30 END BOND
M  V30 BEGIN COLLECTION
M  V30 MDLV30/STERAC1 ATOMS=(2 17 31)
M  V30 END COLLECTION
M  V30 END CTAB
M  END
>  <Molecule Name>
_c001

>  <status>
-

>  <cas>
174484-41-4

>  <name>
TIPRANAVIR

>  <ID>
938

>  <Smiles>
CCC[C@](CCc1ccccc1)(CC(O)=C1[C@@H](CC)c2cccc(NS(c3ncc(C(F)(F)F)cc3)(=O)=O)c2)OC1=O

$$$$

Actelion Java MolfileCreator 2.0

  0  0  0  0  0  0              0 V3000
M  V30 BEGIN CTAB
M  V30 COUNTS 42 45 0 0 0
M  V30 BEGIN ATOM
M  V30 1 O 4.3301 3.0 0.0 0
M  V30 2 C 5.1961 2.5 0.0 0
M  V30 3 C 5.1961 1.5 0.0 0
M  V30 4 C 6.0621 3.0 0.0 0
M  V30 5 C 4.3301 1.0 0.0 0
M  V30 6 C 6.0621 0.9999 0.0 0
M  V30 7 C 6.0621 4.0 0.0 0
M  V30 8 C 6.9282 2.4999 0.0 0 CFG=2
M  V30 9 O 3.4641 1.5 0.0 0
M  V30 10 C 4.3301 0.0 0.0 0
M  V30 11 C 6.0621 0.0 0.0 0
M  V30 12 C 6.9282 1.4999 0.0 0
M  V30 13 O 5.1961 4.5 0.0 0
M  V30 14 C 6.9282 4.4999 0.0 0 CFG=1
M  V30 15 C 7.7942 2.9999 0.0 0
M  V30 16 N 3.4641 -0.5 0.0 0
M  V30 17 C 5.1961 -0.4999 0.0 0
M  V30 18 N 6.9282 -0.5 0.0 0
M  V30 19 O 6.0621 5.0 0.0 0
M  V30 20 C 6.9282 5.4999 0.0 0
M  V30 21 C 7.7942 3.9999 0.0 0 CFG=2
M  V30 22 C 2.598 0.0 0.0 0
M  V30 23 C 6.9282 -1.5 0.0 0
M  V30 24 C 7.7942 0.0 0.0 0
M  V30 25 O 6.0621 5.9999 0.0 0
M  V30 26 C 7.7942 6.0 0.0 0
M  V30 27 C 8.6602 4.5 0.0 0 CFG=2
M  V30 28 O 2.598 1.0 0.0 0
M  V30 29 C 1.732 -0.5 0.0 0
M  V30 30 C 8.6602 5.4999 0.0 0
M  V30 31 C 7.7942 7.0 0.0 0
M  V30 32 N 9.5262 4.0 0.0 0
M  V30 33 N 0.866 0.0 0.0 0
M  V30 34 O 9.5262 5.9999 0.0 0
M  V30 35 O 8.6602 7.5 0.0 0
M  V30 36 N 6.9282 7.5 0.0 0
M  V30 37 C 9.5262 2.9999 0.0 0
M  V30 38 C 10.3923 4.4999 0.0 0
M  V30 39 C 0.0 -0.5 0.0 0
M  V30 40 C 0.4999 -1.366 0.0 0
M  V30 41 C -0.866 -0.9999 0.0 0
M  V30 42 C -0.4999 0.366 0.0 0
M  V30 END ATOM
M  V30 BEGIN BOND
M  V30 1 2 1 2
M  V30 2 1 2 3
M  V30 3 1 2 4
M  V30 4 2 3 5
M  V30 5 1 3 6
M  V30 6 2 4 7
M  V30 7 1 8 4
M  V30 8 1 5 9
M  V30 9 1 5 10
M  V30 10 2 6 11
M  V30 11 1 6 12
M  V30 12 1 7 13
M  V30 13 1 14 7
M  V30 14 1 8 15 CFG=1
M  V30 15 1 10 16
M  V30 16 2 10 17
M  V30 17 1 11 18
M  V30 18 1 14 19 CFG=3
M  V30 19 1 14 20
M  V30 20 1 21 14
M  V30 21 1 16 22
M  V30 22 1 18 23
M  V30 23 1 18 24
M  V30 24 2 20 25
M  V30 25 1 20 26
M  V30 26 1 27 21
M  V30 27 2 22 28
M  V30 28 1 22 29
M  V30 29 2 26 30
M  V30 30 1 26 31
M  V30 31 1 27 32 CFG=3
M  V30 32 1 29 33
M  V30 33 1 30 34
M  V30 34 2 31 35
M  V30 35 1 31 36
M  V30 36 1 32 37
M  V30 37 1 32 38
M  V30 38 1 33 39
M  V30 39 1 39 40
M  V30 40 1 39 41
M  V30 41 1 39 42
M  V30 42 1 8 12
M  V30 43 1 11 17
M  V30 44 1 21 15 CFG=1
M  V30 45 1 27 30
M  V30 END BOND
M  V30 BEGIN COLLECTION
M  V30 MDLV30/STERAC1 ATOMS=(4 8 14 21 27)
M  V30 END COLLECTION
M  V30 END CTAB
M  END
>  <Molecule Name>


>  <status>
-

>  <cas>
220620-09-7

>  <name>
TIGECYCLINE

>  <ID>
939

>  <Smiles>
CC(C)(C)NCC(Nc1cc(N(C)C)c(C[C@H](C[C@H]([C@H](C(O)=C(C(N)=O)C2=O)N(C)C)[C@@]22O)C(C3=O)=C2O)c3c1O)=O

$$$$

Actelion Java MolfileCreator 2.0

  0  0  0  0  0  0              0 V3000
M  V30 BEGIN CTAB
M  V30 COUNTS 21 23 0 0 0
M  V30 BEGIN ATOM
M  V30 1 O 1.8365 -1.4945 0.0 0
M  V30 2 C 2.8147 -1.7024 0.0 0 CFG=2
M  V30 3 C 1.732 -0.5 0.0 0 CFG=2
M  V30 4 N 3.2214 -2.6159 0.0 0
M  V30 5 C 3.3147 -0.8364 0.0 0 CFG=1
M  V30 6 C 2.6455 -0.0932 0.0 0 CFG=1
M  V30 7 C 0.866 0.0 0.0 0
M  V30 8 C 2.7214 -3.482 0.0 0
M  V30 9 C 4.1996 -2.8238 0.0 0
M  V30 10 O 4.3092 -0.7318 0.0 0
M  V30 11 O 2.8535 0.8848 0.0 0
M  V30 12 O 0.0 -0.5 0.0 0
M  V30 13 N 1.7433 -3.6899 0.0 0
M  V30 14 C 3.3905 -4.2251 0.0 0
M  V30 15 N 4.3041 -3.8184 0.0 0
M  V30 16 C 1.4342 -4.6409 0.0 0
M  V30 17 C 3.0815 -5.1762 0.0 0
M  V30 18 N 2.1034 -5.3841 0.0 0
M  V30 19 N 0.4561 -4.8488 0.0 0
M  V30 20 O 3.7507 -5.9193 0.0 0
M  V30 21 C 4.7288 -5.7114 0.0 0
M  V30 END ATOM
M  V30 BEGIN BOND
M  V30 1 1 2 1
M  V30 2 1 3 1
M  V30 3 1 2 4 CFG=1
M  V30 4 1 5 2
M  V30 5 1 6 3
M  V30 6 1 3 7 CFG=1
M  V30 7 1 4 8
M  V30 8 1 4 9
M  V30 9 1 5 10 CFG=1
M  V30 10 1 6 11 CFG=3
M  V30 11 1 7 12
M  V30 12 2 8 13
M  V30 13 1 8 14
M  V30 14 2 9 15
M  V30 15 1 13 16
M  V30 16 2 14 17
M  V30 17 2 16 18
M  V30 18 1 16 19
M  V30 19 1 17 20
M  V30 20 1 20 21
M  V30 21 1 5 6
M  V30 22 1 14 15
M  V30 23 1 17 18
M  V30 END BOND
M  V30 BEGIN COLLECTION
M  V30 MDLV30/STERAC1 ATOMS=(4 2 3 5 6)
M  V30 END COLLECTION
M  V30 END CTAB
M  END
>  <Molecule Name>


>  <status>
-

>  <cas>
121032-29-9

>  <name>
NELARABINE

>  <ID>
940

>  <Smiles>
COc1c2ncn([C@H]([C@@H]3O)O[C@@H](CO)[C@@H]3O)c2nc(N)n1

$$$$

Actelion Java MolfileCreator 2.0

  0  0  0  0  0  0              0 V3000
M  V30 BEGIN CTAB
M  V30 COUNTS 19 21 0 0 0
M  V30 BEGIN ATOM
M  V30 1 O 1.732 -1.5 0.0 0
M  V30 2 C 1.732 -0.5 0.0 0
M  V30 3 N 2.598 0.0 0.0 0
M  V30 4 C 0.866 0.0 0.0 0 CFG=1
M  V30 5 C 2.598 0.9999 0.0 0
M  V30 6 N 0.0 -0.5 0.0 0
M  V30 7 C 0.866 1.0 0.0 0
M  V30 8 O 3.4641 1.4999 0.0 0
M  V30 9 C 1.732 1.4999 0.0 0
M  V30 10 C -0.9135 -0.0932 0.0 0
M  V30 11 C -0.1045 -1.4945 0.0 0
M  V30 12 O -1.1214 0.8848 0.0 0
M  V30 13 C -1.5826 -0.8364 0.0 0
M  V30 14 C -1.0826 -1.7024 0.0 0
M  V30 15 C -2.5826 -0.8364 0.0 0
M  V30 16 C -1.5826 -2.5684 0.0 0
M  V30 17 C -3.0826 -1.7024 0.0 0
M  V30 18 N -1.0826 -3.4344 0.0 0
M  V30 19 C -2.5826 -2.5684 0.0 0
M  V30 END ATOM
M  V30 BEGIN BOND
M  V30 1 2 1 2
M  V30 2 1 2 3
M  V30 3 1 4 2
M  V30 4 1 3 5
M  V30 5 1 4 6 CFG=1
M  V30 6 1 4 7
M  V30 7 2 5 8
M  V30 8 1 5 9
M  V30 9 1 6 10
M  V30 10 1 6 11
M  V30 11 2 10 12
M  V30 12 1 10 13
M  V30 13 1 11 14
M  V30 14 1 13 15
M  V30 15 1 14 16
M  V30 16 2 15 17
M  V30 17 1 16 18
M  V30 18 2 16 19
M  V30 19 1 7 9
M  V30 20 2 13 14
M  V30 21 1 17 19
M  V30 END BOND
M  V30 BEGIN COLLECTION
M  V30 MDLV30/STERAC1 ATOMS=(1 4)
M  V30 END COLLECTION
M  V30 END CTAB
M  END
>  <Molecule Name>


>  <status>
-

>  <cas>
191732-72-6

>  <name>
LENALIDOMIDE

>  <ID>
941

>  <Smiles>
Nc1cccc2c1CN(C(CCC(N1)=O)C1=O)C2=O

$$$$

Actelion Java MolfileCreator 2.0

  0  0  0  0  0  0              0 V3000
M  V30 BEGIN CTAB
M  V30 COUNTS 28 31 0 0 0
M  V30 BEGIN ATOM
M  V30 1 O 7.1457 -0.9752 0.0 0
M  V30 2 C 6.4026 -0.306 0.0 0
M  V30 3 C 5.4515 -0.6151 0.0 0
M  V30 4 C 6.6105 0.672 0.0 0
M  V30 5 C 5.2436 -1.5932 0.0 0
M  V30 6 C 4.7084 0.054 0.0 0
M  V30 7 C 5.8674 1.3411 0.0 0
M  V30 8 N 4.3301 -1.9999 0.0 0
M  V30 9 N 5.9128 -2.3364 0.0 0
M  V30 10 C 4.9163 1.0321 0.0 0
M  V30 11 N 4.4346 -2.9945 0.0 0
M  V30 12 C 3.4641 -1.4999 0.0 0
M  V30 13 C 5.4128 -3.2024 0.0 0
M  V30 14 C 3.4641 -0.5 0.0 0
M  V30 15 C 2.598 -1.9999 0.0 0
M  V30 16 C 5.8195 -4.1159 0.0 0
M  V30 17 C 2.598 0.0 0.0 0
M  V30 18 C 1.732 -1.5 0.0 0
M  V30 19 C 5.2317 -4.9249 0.0 0
M  V30 20 C 6.814 -4.2205 0.0 0
M  V30 21 C 1.732 -0.5 0.0 0
M  V30 22 O 4.2372 -4.8204 0.0 0
M  V30 23 C 5.6384 -5.8385 0.0 0
M  V30 24 C 7.2207 -5.134 0.0 0
M  V30 25 C 0.866 0.0 0.0 0
M  V30 26 C 6.633 -5.943 0.0 0
M  V30 27 O 0.866 1.0 0.0 0
M  V30 28 O 0.0 -0.5 0.0 0 CHG=-1
M  V30 END ATOM
M  V30 BEGIN BOND
M  V30 1 2 1 2
M  V30 2 1 2 3
M  V30 3 1 2 4
M  V30 4 2 3 5
M  V30 5 1 3 6
M  V30 6 2 4 7
M  V30 7 1 5 8
M  V30 8 1 5 9
M  V30 9 2 6 10
M  V30 10 1 8 11
M  V30 11 1 8 12
M  V30 12 1 9 13
M  V30 13 2 12 14
M  V30 14 1 12 15
M  V30 15 2 13 16
M  V30 16 1 14 17
M  V30 17 2 15 18
M  V30 18 1 16 19
M  V30 19 1 16 20
M  V30 20 2 17 21
M  V30 21 2 19 22
M  V30 22 1 19 23
M  V30 23 2 20 24
M  V30 24 1 21 25
M  V30 25 2 23 26
M  V30 26 2 25 27
M  V30 27 1 25 28
M  V30 28 1 7 10
M  V30 29 1 11 13
M  V30 30 1 18 21
M  V30 31 1 24 26
M  V30 END BOND
M  V30 END CTAB
M  END
>  <Molecule Name>


>  <status>
-

>  <cas>
201530-41-8

>  <name>
DEFERASIROX

>  <ID>
942

>  <Smiles>
[O-]C(c(cc1)ccc1N(/C(/N1)=C(\C=CC=C2)/C2=O)N/C1=C(/C=CC=C1)\C1=O)=O

$$$$

Actelion Java MolfileCreator 2.0

  0  0  0  0  0  0              0 V3000
M  V30 BEGIN CTAB
M  V30 COUNTS 23 25 0 0 0
M  V30 BEGIN ATOM
M  V30 1 O 1.732 1.4999 0.0 0
M  V30 2 C 2.598 1.0 0.0 0
M  V30 3 C 2.598 0.0 0.0 0 CFG=2
M  V30 4 C 3.4641 1.4999 0.0 0
M  V30 5 C 3.4641 -0.5 0.0 0
M  V30 6 C 1.732 -0.5 0.0 0
M  V30 7 C 4.3301 1.0 0.0 0 CFG=2
M  V30 8 N 4.3301 0.0 0.0 0
M  V30 9 C 0.866 0.0 0.0 0
M  V30 10 C 5.1961 1.5 0.0 0
M  V30 11 C 5.1961 -0.4999 0.0 0
M  V30 12 C 0.866 1.0 0.0 0
M  V30 13 C 0.0 -0.5 0.0 0
M  V30 14 C 6.0621 1.0 0.0 0
M  V30 15 C 5.1961 2.5 0.0 0
M  V30 16 C 6.0621 0.0 0.0 0
M  V30 17 C 6.9282 1.5 0.0 0
M  V30 18 C 6.0621 2.9999 0.0 0
M  V30 19 C 6.9282 2.5 0.0 0
M  V30 20 O 6.0621 4.0 0.0 0
M  V30 21 O 7.7942 3.0 0.0 0
M  V30 22 C 5.1961 4.5 0.0 0
M  V30 23 C 7.7942 4.0 0.0 0
M  V30 END ATOM
M  V30 BEGIN BOND
M  V30 1 2 1 2
M  V30 2 1 3 2
M  V30 3 1 2 4
M  V30 4 1 3 5
M  V30 5 1 3 6 CFG=3
M  V30 6 1 7 4
M  V30 7 1 5 8
M  V30 8 1 6 9
M  V30 9 1 7 10
M  V30 10 1 8 11
M  V30 11 1 9 12
M  V30 12 1 9 13
M  V30 13 2 10 14
M  V30 14 1 10 15
M  V30 15 1 11 16
M  V30 16 1 14 17
M  V30 17 2 15 18
M  V30 18 2 17 19
M  V30 19 1 18 20
M  V30 20 1 19 21
M  V30 21 1 20 22
M  V30 22 1 21 23
M  V30 23 1 7 8 CFG=1
M  V30 24 1 14 16
M  V30 25 1 18 19
M  V30 END BOND
M  V30 BEGIN COLLECTION
M  V30 MDLV30/STERAC1 ATOMS=(2 3 7)
M  V30 END COLLECTION
M  V30 END CTAB
M  END
>  <Molecule Name>


>  <status>
-

>  <cas>
58-46-8

>  <name>
TETRABENAZINE

>  <ID>
943

>  <Smiles>
CC(C)C[C@@H](CN(CC1)[C@@H](C2)c(cc3OC)c1cc3OC)C2=O

$$$$

Actelion Java MolfileCreator 2.0

  0  0  0  0  0  0              0 V3000
M  V30 BEGIN CTAB
M  V30 COUNTS 27 28 0 0 0
M  V30 BEGIN ATOM
M  V30 1 F 17.279 1.7993 0.0 0
M  V30 2 C 16.1643 0.7957 0.0 0
M  V30 3 F 15.8524 2.2628 0.0 0
M  V30 4 C 14.697 0.4838 0.0 0 CFG=2
M  V30 5 C 17.168 -0.319 0.0 0
M  V30 6 O 14.2335 -0.9427 0.0 0
M  V30 7 O 15.7007 -0.6308 0.0 0
M  V30 8 C 13.6933 1.5985 0.0 0
M  V30 9 C 18.6352 -0.0071 0.0 0
M  V30 10 C 12.7663 -1.2546 0.0 0 CFG=2
M  V30 11 C 12.2261 1.2866 0.0 0
M  V30 12 C 19.6389 -1.1218 0.0 0
M  V30 13 C 11.7626 -0.1398 0.0 0 CFG=1
M  V30 14 C 12.0163 -2.5536 0.0 0
M  V30 15 C 21.1061 -0.8099 0.0 0
M  V30 16 C 10.3923 -0.75 0.0 0 CFG=1
M  V30 17 C 10.5491 -2.2417 0.0 0
M  V30 18 C 9.0932 0.0 0.0 0
M  V30 19 O 9.4343 -3.2454 0.0 0
M  V30 20 C 7.7942 -0.75 0.0 0
M  V30 21 C 6.4952 0.0 0.0 0
M  V30 22 C 5.1961 -0.75 0.0 0
M  V30 23 C 3.8971 0.0 0.0 0
M  V30 24 C 2.598 -0.75 0.0 0
M  V30 25 C 1.299 0.0 0.0 0
M  V30 26 O 1.299 1.5 0.0 0
M  V30 27 O 0.0 -0.75 0.0 0 CHG=-1
M  V30 END ATOM
M  V30 BEGIN BOND
M  V30 1 1 1 2
M  V30 2 1 2 3
M  V30 3 1 4 2
M  V30 4 1 2 5
M  V30 5 1 4 6
M  V30 6 1 4 7 CFG=3
M  V30 7 1 4 8
M  V30 8 1 5 9
M  V30 9 1 10 6 CFG=1
M  V30 10 1 8 11
M  V30 11 1 9 12
M  V30 12 1 13 10
M  V30 13 1 10 14
M  V30 14 1 12 15
M  V30 15 1 16 13
M  V30 16 1 14 17
M  V30 17 1 16 18 CFG=1
M  V30 18 2 17 19
M  V30 19 1 18 20
M  V30 20 1 20 21
M  V30 21 1 21 22
M  V30 22 1 22 23
M  V30 23 1 23 24
M  V30 24 1 24 25
M  V30 25 2 25 26
M  V30 26 1 25 27
M  V30 27 1 13 11 CFG=3
M  V30 28 1 16 17
M  V30 END BOND
M  V30 BEGIN COLLECTION
M  V30 MDLV30/STERAC1 ATOMS=(4 4 10 13 16)
M  V30 END COLLECTION
M  V30 END CTAB
M  END
>  <Molecule Name>


>  <status>
-

>  <cas>
333963-40-9

>  <name>
LUBIPROSTONE

>  <ID>
944

>  <Smiles>
CCCCC([C@@](CC1)(O)O[C@@H](C2)[C@@H]1[C@H](CCCCCCC([O-])=O)C2=O)(F)F

$$$$

Actelion Java MolfileCreator 2.0

  0  0  0  0  0  0              0 V3000
M  V30 BEGIN CTAB
M  V30 COUNTS 25 26 0 0 0
M  V30 BEGIN ATOM
M  V30 1 O 5.1961 -4.4999 0.0 0
M  V30 2 C 5.1961 -3.4999 0.0 0
M  V30 3 N 6.0621 -3.0 0.0 0
M  V30 4 C 6.0621 -2.0 0.0 0
M  V30 5 C 6.9282 -1.5 0.0 0
M  V30 6 C 5.1961 -1.4999 0.0 0
M  V30 7 O 7.7942 -2.0 0.0 0
M  V30 8 C 6.9282 -0.5 0.0 0
M  V30 9 C 5.1961 -0.5 0.0 0
M  V30 10 C 6.0621 0.0 0.0 0
M  V30 11 C 4.3301 0.0 0.0 0 CFG=1
M  V30 12 O 4.3301 1.0 0.0 0
M  V30 13 C 3.4641 -0.5 0.0 0
M  V30 14 N 2.598 0.0 0.0 0
M  V30 15 C 1.732 -0.5 0.0 0 CFG=1
M  V30 16 C 0.866 0.0 0.0 0
M  V30 17 C 1.732 -1.5 0.0 0
M  V30 18 C 0.0 -0.5 0.0 0
M  V30 19 C -0.866 0.0 0.0 0
M  V30 20 C 0.0 -1.4999 0.0 0
M  V30 21 C -1.732 -0.4999 0.0 0
M  V30 22 C -0.866 -1.9999 0.0 0
M  V30 23 C -1.732 -1.4999 0.0 0
M  V30 24 O -2.598 -1.9999 0.0 0
M  V30 25 C -2.598 -2.9999 0.0 0
M  V30 END ATOM
M  V30 BEGIN BOND
M  V30 1 2 1 2
M  V30 2 1 2 3
M  V30 3 1 3 4
M  V30 4 2 4 5
M  V30 5 1 4 6
M  V30 6 1 5 7
M  V30 7 1 5 8
M  V30 8 2 6 9
M  V30 9 2 8 10
M  V30 10 1 11 9
M  V30 11 1 11 12 CFG=3
M  V30 12 1 11 13
M  V30 13 1 13 14
M  V30 14 1 15 14 CFG=3
M  V30 15 1 15 16
M  V30 16 1 15 17
M  V30 17 1 16 18
M  V30 18 2 18 19
M  V30 19 1 18 20
M  V30 20 1 19 21
M  V30 21 2 20 22
M  V30 22 2 21 23
M  V30 23 1 23 24
M  V30 24 1 24 25
M  V30 25 1 9 10
M  V30 26 1 22 23
M  V30 END BOND
M  V30 BEGIN COLLECTION
M  V30 MDLV30/STERAC1 ATOMS=(2 11 15)
M  V30 END COLLECTION
M  V30 END CTAB
M  END
>  <Molecule Name>


>  <status>
-

>  <cas>
67346-49-0

>  <name>
ARFORMOTEROL

>  <ID>
945

>  <Smiles>
C[C@H](Cc(cc1)ccc1OC)NC[C@@H](c(cc1)cc(NC=O)c1O)O

$$$$

Actelion Java MolfileCreator 2.0

  0  0  0  0  0  0              0 V3000
M  V30 BEGIN CTAB
M  V30 COUNTS 16 19 0 0 0
M  V30 BEGIN ATOM
M  V30 1 N -2.598 0.5 0.0 0
M  V30 2 C -1.732 0.0 0.0 0
M  V30 3 C -3.4641 0.0 0.0 0
M  V30 4 C -1.732 -0.9999 0.0 0
M  V30 5 C -0.866 0.4999 0.0 0
M  V30 6 C -3.4641 -0.9999 0.0 0
M  V30 7 N -2.598 -1.4999 0.0 0
M  V30 8 C -0.866 -1.5 0.0 0
M  V30 9 C 0.0 0.0 0.0 0
M  V30 10 C 0.0 -1.0 0.0 0
M  V30 11 C 0.951 0.309 0.0 0 CFG=2
M  V30 12 C 0.951 -1.309 0.0 0 CFG=2
M  V30 13 C 2.3136 0.366 0.0 0
M  V30 14 C 1.5388 -0.5 0.0 0
M  V30 15 C 2.3136 -1.366 0.0 0
M  V30 16 N 2.8136 -0.5 0.0 0
M  V30 END ATOM
M  V30 BEGIN BOND
M  V30 1 1 1 2
M  V30 2 2 1 3
M  V30 3 1 2 4
M  V30 4 2 2 5
M  V30 5 1 3 6
M  V30 6 1 4 7
M  V30 7 2 4 8
M  V30 8 1 5 9
M  V30 9 1 8 10
M  V30 10 1 11 9
M  V30 11 1 12 10
M  V30 12 1 11 13 CFG=3
M  V30 13 1 11 14
M  V30 14 1 12 15 CFG=3
M  V30 15 1 13 16
M  V30 16 2 6 7
M  V30 17 2 9 10
M  V30 18 1 12 14
M  V30 19 1 15 16
M  V30 END BOND
M  V30 BEGIN COLLECTION
M  V30 MDLV30/STEABS ATOMS=(2 11 12)
M  V30 END COLLECTION
M  V30 END CTAB
M  END
>  <Molecule Name>


>  <status>
-

>  <cas>
249296-44-4

>  <name>
VARENICLINE

>  <ID>
946

>  <Smiles>
C([C@@H]1CNC2)[C@@H]2c2c1cc1nccnc1c2

$$$$

Actelion Java MolfileCreator 2.0

  0  0  0  0  0  0              0 V3000
M  V30 BEGIN CTAB
M  V30 COUNTS 33 36 0 0 0
M  V30 BEGIN ATOM
M  V30 1 Cl 1.732 1.4999 0.0 0
M  V30 2 C 2.598 1.0 0.0 0
M  V30 3 C 2.598 0.0 0.0 0
M  V30 4 C 3.4641 1.4999 0.0 0
M  V30 5 N 1.732 -0.5 0.0 0
M  V30 6 C 3.4641 -0.5 0.0 0
M  V30 7 C 4.3301 1.0 0.0 0
M  V30 8 C 0.866 0.0 0.0 0
M  V30 9 C 4.3301 0.0 0.0 0
M  V30 10 C 3.4641 -1.5 0.0 0
M  V30 11 O 0.866 1.0 0.0 0
M  V30 12 C 0.0 -0.5 0.0 0
M  V30 13 S -0.9135 -0.0932 0.0 0
M  V30 14 C -0.1045 -1.4945 0.0 0
M  V30 15 C -1.5826 -0.8364 0.0 0
M  V30 16 N -1.0826 -1.7024 0.0 0
M  V30 17 N -2.5771 -0.7318 0.0 0
M  V30 18 C -3.1649 -1.5408 0.0 0
M  V30 19 N -4.1595 -1.4363 0.0 0
M  V30 20 C -2.7582 -2.4544 0.0 0
M  V30 21 C -4.7472 -2.2453 0.0 0
M  V30 22 C -3.346 -3.2634 0.0 0
M  V30 23 N -4.3405 -3.1589 0.0 0
M  V30 24 C -5.7418 -2.1408 0.0 0
M  V30 25 N -2.9392 -4.177 0.0 0
M  V30 26 C -3.527 -4.986 0.0 0
M  V30 27 C -1.9447 -4.2815 0.0 0
M  V30 28 C -3.1203 -5.8995 0.0 0
M  V30 29 C -1.538 -5.195 0.0 0
M  V30 30 N -2.1258 -6.004 0.0 0
M  V30 31 C -1.719 -6.9176 0.0 0
M  V30 32 C -2.3068 -7.7266 0.0 0
M  V30 33 O -1.9001 -8.6402 0.0 0
M  V30 END ATOM
M  V30 BEGIN BOND
M  V30 1 1 1 2
M  V30 2 2 2 3
M  V30 3 1 2 4
M  V30 4 1 3 5
M  V30 5 1 3 6
M  V30 6 2 4 7
M  V30 7 1 5 8
M  V30 8 2 6 9
M  V30 9 1 6 10
M  V30 10 2 8 11
M  V30 11 1 8 12
M  V30 12 1 12 13
M  V30 13 2 12 14
M  V30 14 1 13 15
M  V30 15 1 14 16
M  V30 16 1 15 17
M  V30 17 1 17 18
M  V30 18 2 18 19
M  V30 19 1 18 20
M  V30 20 1 19 21
M  V30 21 2 20 22
M  V30 22 2 21 23
M  V30 23 1 21 24
M  V30 24 1 22 25
M  V30 25 1 25 26
M  V30 26 1 25 27
M  V30 27 1 26 28
M  V30 28 1 27 29
M  V30 29 1 28 30
M  V30 30 1 30 31
M  V30 31 1 31 32
M  V30 32 1 32 33
M  V30 33 1 7 9
M  V30 34 2 15 16
M  V30 35 1 22 23
M  V30 36 1 29 30
M  V30 END BOND
M  V30 END CTAB
M  END
>  <Molecule Name>


>  <status>
-

>  <cas>
302962-49-8

>  <name>
DASATINIB

>  <ID>
947

>  <Smiles>
Cc1cccc(Cl)c1NC(c1cnc(Nc2nc(C)nc(N3CCN(CCO)CC3)c2)s1)=O

$$$$

Actelion Java MolfileCreator 2.0

  0  0  0  0  0  0              0 V3000
M  V30 BEGIN CTAB
M  V30 COUNTS 19 19 0 0 0
M  V30 BEGIN ATOM
M  V30 1 O 7.7942 1.0 0.0 0
M  V30 2 C 7.7942 0.0 0.0 0
M  V30 3 N 8.6602 -0.5 0.0 0
M  V30 4 C 6.9282 -0.5 0.0 0
M  V30 5 O 9.5262 0.0 0.0 0
M  V30 6 C 6.0621 0.0 0.0 0
M  V30 7 C 5.1961 -0.5 0.0 0
M  V30 8 C 4.3301 0.0 0.0 0
M  V30 9 C 3.4641 -0.5 0.0 0
M  V30 10 C 2.598 0.0 0.0 0
M  V30 11 C 1.732 -0.5 0.0 0
M  V30 12 O 1.732 -1.5 0.0 0
M  V30 13 N 0.866 0.0 0.0 0
M  V30 14 C 0.0 -0.5 0.0 0
M  V30 15 C -0.866 0.0 0.0 0
M  V30 16 C 0.0 -1.4999 0.0 0
M  V30 17 C -1.732 -0.4999 0.0 0
M  V30 18 C -0.866 -1.9999 0.0 0
M  V30 19 C -1.732 -1.4999 0.0 0
M  V30 END ATOM
M  V30 BEGIN BOND
M  V30 1 2 1 2
M  V30 2 1 2 3
M  V30 3 1 2 4
M  V30 4 1 3 5
M  V30 5 1 4 6
M  V30 6 1 6 7
M  V30 7 1 7 8
M  V30 8 1 8 9
M  V30 9 1 9 10
M  V30 10 1 10 11
M  V30 11 2 11 12
M  V30 12 1 11 13
M  V30 13 1 13 14
M  V30 14 2 14 15
M  V30 15 1 14 16
M  V30 16 1 15 17
M  V30 17 2 16 18
M  V30 18 2 17 19
M  V30 19 1 18 19
M  V30 END BOND
M  V30 END CTAB
M  END
>  <Molecule Name>


>  <status>
-

>  <cas>
149647-78-9

>  <name>
VORINOSTAT

>  <ID>
948

>  <Smiles>
ONC(CCCCCCC(Nc1ccccc1)=O)=O

$$$$

Actelion Java MolfileCreator 2.0

  0  0  0  0  0  0              0 V3000
M  V30 BEGIN CTAB
M  V30 COUNTS 31 35 0 0 0
M  V30 BEGIN ATOM
M  V30 1 F 9.0441 0.4695 0.0 0
M  V30 2 C 8.0659 0.6774 0.0 0
M  V30 3 C 7.7569 1.6284 0.0 0
M  V30 4 C 7.3968 -0.0657 0.0 0
M  V30 5 C 6.7788 1.8364 0.0 0
M  V30 6 C 6.4187 0.1422 0.0 0
M  V30 7 O 6.2788 2.7024 0.0 0
M  V30 8 C 6.1096 1.0932 0.0 0
M  V30 9 N 5.3006 2.4945 0.0 0
M  V30 10 C 5.1961 1.5 0.0 0
M  V30 11 C 4.3301 1.0 0.0 0
M  V30 12 C 3.4641 1.5 0.0 0
M  V30 13 C 4.3301 0.0 0.0 0
M  V30 14 C 2.598 0.9999 0.0 0
M  V30 15 C 3.4641 -0.4999 0.0 0
M  V30 16 N 2.598 0.0 0.0 0
M  V30 17 C 1.732 -0.5 0.0 0
M  V30 18 C 0.866 0.0 0.0 0
M  V30 19 C 0.0 -0.5 0.0 0
M  V30 20 C -0.866 0.0 0.0 0
M  V30 21 C 0.0 -1.4999 0.0 0
M  V30 22 O -0.866 1.0 0.0 0
M  V30 23 N -1.732 -0.4999 0.0 0
M  V30 24 N -0.866 -1.9999 0.0 0
M  V30 25 C 0.866 -2.0 0.0 0
M  V30 26 C -1.732 -1.4999 0.0 0
M  V30 27 C -2.598 0.0 0.0 0
M  V30 28 C -2.598 -1.9999 0.0 0 CFG=1
M  V30 29 C -3.4641 -0.4999 0.0 0
M  V30 30 O -2.598 -2.9999 0.0 0
M  V30 31 C -3.4641 -1.4999 0.0 0
M  V30 END ATOM
M  V30 BEGIN BOND
M  V30 1 1 1 2
M  V30 2 2 2 3
M  V30 3 1 2 4
M  V30 4 1 3 5
M  V30 5 2 4 6
M  V30 6 1 5 7
M  V30 7 2 5 8
M  V30 8 1 7 9
M  V30 9 1 8 10
M  V30 10 1 10 11
M  V30 11 1 11 12
M  V30 12 1 11 13
M  V30 13 1 12 14
M  V30 14 1 13 15
M  V30 15 1 14 16
M  V30 16 1 16 17
M  V30 17 1 17 18
M  V30 18 1 18 19
M  V30 19 1 19 20
M  V30 20 2 19 21
M  V30 21 2 20 22
M  V30 22 1 20 23
M  V30 23 1 21 24
M  V30 24 1 21 25
M  V30 25 1 23 26
M  V30 26 1 23 27
M  V30 27 1 28 26
M  V30 28 1 27 29
M  V30 29 1 28 30 CFG=1
M  V30 30 1 28 31
M  V30 31 1 6 8
M  V30 32 2 9 10
M  V30 33 1 15 16
M  V30 34 2 24 26
M  V30 35 1 29 31
M  V30 END BOND
M  V30 BEGIN COLLECTION
M  V30 MDLV30/STERAC1 ATOMS=(1 28)
M  V30 END COLLECTION
M  V30 END CTAB
M  END
>  <Molecule Name>


>  <status>
-

>  <cas>
144598-75-4

>  <name>
PALIPERIDONE

>  <ID>
949

>  <Smiles>
CC(N=C1N2CCCC1O)=C(CCN(CC1)CCC1c1noc3c1ccc(F)c3)C2=O

$$$$

Actelion Java MolfileCreator 2.0

  0  0  0  0  0  0              0 V3000
M  V30 BEGIN CTAB
M  V30 COUNTS 51 57 0 0 0
M  V30 BEGIN ATOM
M  V30 1 F 15.7024 -19.9517 0.0 0
M  V30 2 C 15.7809 -21.4496 0.0 0
M  V30 3 C 14.5229 -22.2666 0.0 0
M  V30 4 C 17.1174 -22.1306 0.0 0
M  V30 5 C 14.6014 -23.7645 0.0 0
M  V30 6 C 13.1864 -21.5856 0.0 0 CFG=1
M  V30 7 C 17.1959 -23.6285 0.0 0
M  V30 8 C 15.9379 -24.4455 0.0 0
M  V30 9 O 14.3999 -20.7039 0.0 0
M  V30 10 C 11.9729 -20.7039 0.0 0
M  V30 11 C 13.1864 -23.0856 0.0 0
M  V30 12 F 18.5324 -24.3095 0.0 0
M  V30 13 C 13.9364 -19.2773 0.0 0
M  V30 14 C 12.4364 -19.2773 0.0 0 CFG=2
M  V30 15 N 11.8873 -23.8356 0.0 0
M  V30 16 C 11.5547 -18.0638 0.0 0
M  V30 17 N 10.517 -23.2255 0.0 0
M  V30 18 C 11.7305 -25.3274 0.0 0
M  V30 19 O 12.1648 -16.6935 0.0 0
M  V30 20 C 9.5133 -24.3402 0.0 0
M  V30 21 N 10.2633 -25.6392 0.0 0
M  V30 22 C 11.2831 -15.4799 0.0 0
M  V30 23 C 11.8932 -14.1096 0.0 0
M  V30 24 C 9.7913 -15.6367 0.0 0
M  V30 25 C 11.0116 -12.8961 0.0 0
M  V30 26 C 8.9097 -14.4232 0.0 0
M  V30 27 C 9.5198 -13.0529 0.0 0
M  V30 28 N 8.6381 -11.8394 0.0 0
M  V30 29 C 9.2482 -10.469 0.0 0
M  V30 30 C 7.1463 -11.9962 0.0 0
M  V30 31 C 8.3665 -9.2555 0.0 0
M  V30 32 C 6.2646 -10.7826 0.0 0
M  V30 33 N 6.8747 -9.4123 0.0 0
M  V30 34 C 5.9931 -8.1988 0.0 0
M  V30 35 C 6.6032 -6.8285 0.0 0
M  V30 36 C 4.5013 -8.3556 0.0 0
M  V30 37 C 5.7215 -5.6149 0.0 0
M  V30 38 C 3.6196 -7.1421 0.0 0
M  V30 39 C 4.2297 -5.7717 0.0 0
M  V30 40 N 3.348 -4.5582 0.0 0
M  V30 41 C 3.8116 -3.1316 0.0 0
M  V30 42 C 1.848 -4.5582 0.0 0
M  V30 43 O 5.2381 -2.6681 0.0 0
M  V30 44 N 2.598 -2.25 0.0 0
M  V30 45 N 1.3845 -3.1316 0.0 0
M  V30 46 C 2.598 -0.75 0.0 0 CFG=1
M  V30 47 C 3.8971 0.0 0.0 0 CFG=2
M  V30 48 C 1.299 0.0 0.0 0
M  V30 49 O 5.1961 -0.75 0.0 0
M  V30 50 C 3.8971 1.5 0.0 0
M  V30 51 C 0.0 -0.75 0.0 0
M  V30 END ATOM
M  V30 BEGIN BOND
M  V30 1 1 1 2
M  V30 2 2 2 3
M  V30 3 1 2 4
M  V30 4 1 3 5
M  V30 5 1 6 3
M  V30 6 2 4 7
M  V30 7 2 5 8
M  V30 8 1 6 9
M  V30 9 1 6 10
M  V30 10 1 6 11 CFG=1
M  V30 11 1 7 12
M  V30 12 1 9 13
M  V30 13 1 14 10
M  V30 14 1 11 15
M  V30 15 1 14 16 CFG=1
M  V30 16 1 15 17
M  V30 17 1 15 18
M  V30 18 1 16 19
M  V30 19 2 17 20
M  V30 20 2 18 21
M  V30 21 1 19 22
M  V30 22 2 22 23
M  V30 23 1 22 24
M  V30 24 1 23 25
M  V30 25 2 24 26
M  V30 26 2 25 27
M  V30 27 1 27 28
M  V30 28 1 28 29
M  V30 29 1 28 30
M  V30 30 1 29 31
M  V30 31 1 30 32
M  V30 32 1 31 33
M  V30 33 1 33 34
M  V30 34 2 34 35
M  V30 35 1 34 36
M  V30 36 1 35 37
M  V30 37 2 36 38
M  V30 38 2 37 39
M  V30 39 1 39 40
M  V30 40 1 40 41
M  V30 41 1 40 42
M  V30 42 2 41 43
M  V30 43 1 41 44
M  V30 44 2 42 45
M  V30 45 1 46 44 CFG=3
M  V30 46 1 47 46
M  V30 47 1 46 48
M  V30 48 1 47 49 CFG=1
M  V30 49 1 47 50
M  V30 50 1 48 51
M  V30 51 1 7 8
M  V30 52 1 13 14
M  V30 53 1 20 21
M  V30 54 1 26 27
M  V30 55 1 32 33
M  V30 56 1 38 39
M  V30 57 1 44 45
M  V30 END BOND
M  V30 BEGIN COLLECTION
M  V30 MDLV30/STERAC1 ATOMS=(4 6 14 46 47)
M  V30 END COLLECTION
M  V30 END CTAB
M  END
>  <Molecule Name>


>  <status>
-

>  <cas>
171228-49-2

>  <name>
POSACONAZOLE

>  <ID>
950

>  <Smiles>
CC[C@H]([C@@H](C)O)N(C1=O)N=CN1c(cc1)ccc1N(CC1)CCN1c(cc1)ccc1OC[C@H](C1)CO[C@]1(Cn1ncnc1)c(ccc(F)c1)c1F

$$$$

Actelion Java MolfileCreator 2.0

  0  0  0  0  0  0              0 V3000
M  V30 BEGIN CTAB
M  V30 COUNTS 17 18 0 0 0
M  V30 BEGIN ATOM
M  V30 1 O 4.1282 0.9906 0.0 0
M  V30 2 C 4.7159 0.1816 0.0 0
M  V30 3 N 4.3092 -0.7318 0.0 0
M  V30 4 N 5.7105 0.2861 0.0 0
M  V30 5 C 4.897 -1.5408 0.0 0
M  V30 6 C 3.3147 -0.8364 0.0 0 CFG=1
M  V30 7 C 6.2982 -0.5228 0.0 0
M  V30 8 C 5.8915 -1.4363 0.0 0
M  V30 9 O 2.6455 -0.0932 0.0 0
M  V30 10 C 2.8147 -1.7024 0.0 0
M  V30 11 O 7.2928 -0.4182 0.0 0
M  V30 12 C 6.4793 -2.2453 0.0 0
M  V30 13 C 1.732 -0.5 0.0 0 CFG=2
M  V30 14 C 1.8365 -1.4945 0.0 0 CFG=2
M  V30 15 C 0.866 0.0 0.0 0
M  V30 16 O 1.0934 -2.1636 0.0 0
M  V30 17 O 0.0 -0.5 0.0 0
M  V30 END ATOM
M  V30 BEGIN BOND
M  V30 1 2 1 2
M  V30 2 1 2 3
M  V30 3 1 2 4
M  V30 4 1 3 5
M  V30 5 1 6 3 CFG=3
M  V30 6 1 4 7
M  V30 7 2 5 8
M  V30 8 1 6 9
M  V30 9 1 6 10
M  V30 10 2 7 11
M  V30 11 1 8 12
M  V30 12 1 13 9
M  V30 13 1 14 10
M  V30 14 1 13 15 CFG=3
M  V30 15 1 14 16 CFG=1
M  V30 16 1 15 17
M  V30 17 1 7 8
M  V30 18 1 13 14
M  V30 END BOND
M  V30 BEGIN COLLECTION
M  V30 MDLV30/STERAC1 ATOMS=(3 6 13 14)
M  V30 END COLLECTION
M  V30 END CTAB
M  END
>  <Molecule Name>


>  <status>
DISCONTINUED

>  <cas>
3424-98-4

>  <name>
TELBIVUDINE

>  <ID>
951

>  <Smiles>
CC(C(N1)=O)=CN([C@H](C2)O[C@@H](CO)[C@@H]2O)C1=O

$$$$

Actelion Java MolfileCreator 2.0

  0  0  0  0  0  0              0 V3000
M  V30 BEGIN CTAB
M  V30 COUNTS 11 11 0 0 0
M  V30 BEGIN ATOM
M  V30 1 O 2.598 1.0 0.0 0
M  V30 2 C 2.598 0.0 0.0 0 CFG=2
M  V30 3 C 1.732 -0.5 0.0 0 CFG=1
M  V30 4 C 3.4641 -0.4999 0.0 0
M  V30 5 C 0.866 0.0 0.0 0
M  V30 6 C 1.732 -1.5 0.0 0
M  V30 7 C 3.4641 -1.4999 0.0 0 CFG=2
M  V30 8 C 0.866 1.0 0.0 0
M  V30 9 C 0.0 -0.5 0.0 0
M  V30 10 C 2.598 -1.9999 0.0 0
M  V30 11 C 4.3301 -1.9999 0.0 0
M  V30 END ATOM
M  V30 BEGIN BOND
M  V30 1 1 2 1 CFG=1
M  V30 2 1 3 2
M  V30 3 1 2 4
M  V30 4 1 3 5 CFG=3
M  V30 5 1 3 6
M  V30 6 1 7 4
M  V30 7 1 5 8
M  V30 8 1 5 9
M  V30 9 1 6 10
M  V30 10 1 7 11 CFG=1
M  V30 11 1 7 10
M  V30 END BOND
M  V30 BEGIN COLLECTION
M  V30 MDLV30/STERAC1 ATOMS=(3 2 3 7)
M  V30 END COLLECTION
M  V30 END CTAB
M  END
>  <Molecule Name>


>  <status>
-

>  <cas>
89-78-1

>  <name>
MENTHOL

>  <ID>
952

>  <Smiles>
CC(C)[C@@H](CC[C@H](C)C1)[C@H]1O

$$$$

Actelion Java MolfileCreator 2.0

  0  0  0  0  0  0              0 V3000
M  V30 BEGIN CTAB
M  V30 COUNTS 26 28 0 0 0
M  V30 BEGIN ATOM
M  V30 1 S 9.202 -1.2051 0.0 0
M  V30 2 C 10.3678 -0.2612 0.0 0
M  V30 3 C 7.944 -0.3882 0.0 0 CFG=2
M  V30 4 C 9.8302 1.1391 0.0 0 CFG=2
M  V30 5 C 11.4284 -1.3218 0.0 0
M  V30 6 C 11.8166 0.127 0.0 0
M  V30 7 N 8.3323 1.0606 0.0 0
M  V30 8 C 6.4952 0.0 0.0 0 CFG=2
M  V30 9 C 10.6472 2.3971 0.0 0
M  V30 10 C 6.8834 1.4488 0.0 0
M  V30 11 N 5.1961 -0.75 0.0 0
M  V30 12 O 12.1451 2.3186 0.0 0
M  V30 13 O 9.9662 3.7336 0.0 0 CHG=-1
M  V30 14 O 6.1334 2.7479 0.0 0
M  V30 15 C 3.8971 0.0 0.0 0
M  V30 16 O 3.8971 1.5 0.0 0
M  V30 17 C 2.598 -0.75 0.0 0 CFG=1
M  V30 18 C 2.598 -2.25 0.0 0
M  V30 19 C 1.299 0.0 0.0 0
M  V30 20 C 1.299 -3.0 0.0 0
M  V30 21 C 3.8971 -3.0 0.0 0
M  V30 22 O 1.299 1.5 0.0 0
M  V30 23 O 0.0 -0.75 0.0 0 CHG=-1
M  V30 24 C 1.299 -4.5 0.0 0
M  V30 25 C 3.8971 -4.5 0.0 0
M  V30 26 C 2.598 -5.25 0.0 0
M  V30 END ATOM
M  V30 BEGIN BOND
M  V30 1 1 1 2
M  V30 2 1 3 1 CFG=1
M  V30 3 1 4 2
M  V30 4 1 2 5
M  V30 5 1 2 6
M  V30 6 1 3 7
M  V30 7 1 8 3
M  V30 8 1 4 9 CFG=3
M  V30 9 1 7 10
M  V30 10 1 8 11 CFG=1
M  V30 11 2 9 12
M  V30 12 1 9 13
M  V30 13 2 10 14
M  V30 14 1 11 15
M  V30 15 2 15 16
M  V30 16 1 17 15 CFG=1
M  V30 17 1 17 18
M  V30 18 1 17 19
M  V30 19 2 18 20
M  V30 20 1 18 21
M  V30 21 2 19 22
M  V30 22 1 19 23
M  V30 23 1 20 24
M  V30 24 2 21 25
M  V30 25 2 24 26
M  V30 26 1 4 7
M  V30 27 1 8 10
M  V30 28 1 25 26
M  V30 END BOND
M  V30 BEGIN COLLECTION
M  V30 MDLV30/STERAC1 ATOMS=(4 3 4 8 17)
M  V30 END COLLECTION
M  V30 END CTAB
M  END
>  <Molecule Name>


>  <status>
DISCONTINUED

>  <cas>
4697-36-3

>  <name>
CARBENICILLIN

>  <ID>
953

>  <Smiles>
CC(C)([C@H]1C([O-])=O)S[C@@H]([C@H]2NC([C@H](C([O-])=O)c3ccccc3)=O)N1C2=O

$$$$

Actelion Java MolfileCreator 2.0

  0  0  0  0  0  0              0 V3000
M  V30 BEGIN CTAB
M  V30 COUNTS 36 40 0 0 0
M  V30 BEGIN ATOM
M  V30 1 S 1.732 2.4999 0.0 0
M  V30 2 C 2.5513 2.9694 0.0 0 CFG=2
M  V30 3 C 1.732 1.4999 0.0 0
M  V30 4 C 3.4641 2.4999 0.0 0
M  V30 5 C 2.598 3.9999 0.0 0
M  V30 6 C 0.866 0.9999 0.0 0
M  V30 7 C 4.6156 3.2306 0.0 0 CFG=2
M  V30 8 C 3.8066 4.6319 0.0 0 CFG=1
M  V30 9 O 0.0 1.5 0.0 0
M  V30 10 O 0.866 0.0 0.0 0
M  V30 11 N 3.702 3.6374 0.0 0
M  V30 12 C 5.2847 3.9738 0.0 0
M  V30 13 C 4.7847 4.8398 0.0 0
M  V30 14 C 0.0 -0.5 0.0 0 CFG=2
M  V30 15 C 2.9229 3.2127 0.0 0
M  V30 16 C 0.1191 -1.5522 0.0 0 CFG=2
M  V30 17 C -0.8042 0.0942 0.0 0
M  V30 18 C 0.6347 -2.409 0.0 0 CFG=2
M  V30 19 C -0.8807 -1.5704 0.0 0 CFG=1
M  V30 20 C 1.066 -1.2308 0.0 0
M  V30 21 C -1.8486 -0.0426 0.0 0 CFG=2
M  V30 22 C 0.1505 -3.284 0.0 0
M  V30 23 C 1.6346 -2.3908 0.0 0
M  V30 24 C -1.5632 -0.8395 0.0 0
M  V30 25 C -1.3648 -2.4453 0.0 0 CFG=1
M  V30 26 C -2.3088 0.8025 0.0 0
M  V30 27 C -2.4022 -0.8133 0.0 0 CFG=1
M  V30 28 C -1.3672 0.8504 0.0 0
M  V30 29 C -0.8492 -3.3021 0.0 0
M  V30 30 O -1.3487 0.1807 0.0 0
M  V30 31 C -2.5342 -1.3003 0.0 0
M  V30 32 C -2.1608 -1.8268 0.0 0 CFG=1
M  V30 33 C -2.3409 -2.3118 0.0 0
M  V30 34 C -1.8246 1.6774 0.0 0
M  V30 35 O -3.3579 -0.6173 0.0 0
M  V30 36 C -3.0861 -2.3786 0.0 0
M  V30 END ATOM
M  V30 BEGIN BOND
M  V30 1 1 2 1 CFG=1
M  V30 2 1 1 3
M  V30 3 1 2 4
M  V30 4 1 2 5
M  V30 5 1 3 6
M  V30 6 1 7 4
M  V30 7 1 8 5
M  V30 8 2 6 9
M  V30 9 1 6 10
M  V30 10 1 7 11 CFG=1
M  V30 11 1 7 12
M  V30 12 1 8 13
M  V30 13 1 14 10 CFG=3
M  V30 14 1 11 15
M  V30 15 1 16 14
M  V30 16 1 14 17
M  V30 17 1 18 16
M  V30 18 1 19 16
M  V30 19 1 16 20 CFG=1
M  V30 20 1 21 17
M  V30 21 1 18 22
M  V30 22 1 18 23 CFG=1
M  V30 23 1 19 24 CFG=3
M  V30 24 1 25 19
M  V30 25 1 21 26
M  V30 26 1 27 21
M  V30 27 1 21 28 CFG=3
M  V30 28 1 22 29
M  V30 29 2 24 30
M  V30 30 1 24 31
M  V30 31 1 32 25
M  V30 32 1 25 33 CFG=3
M  V30 33 2 26 34
M  V30 34 1 27 35 CFG=1
M  V30 35 1 32 36 CFG=3
M  V30 36 1 8 11 CFG=1
M  V30 37 1 12 13
M  V30 38 1 25 29
M  V30 39 1 27 32
M  V30 40 1 31 33
M  V30 END BOND
M  V30 BEGIN COLLECTION
M  V30 MDLV30/STEABS ATOMS=(3 2 7 8)
M  V30 MDLV30/STERAC1 ATOMS=(8 14 16 18 19 21 25 27 32)
M  V30 END COLLECTION
M  V30 END CTAB
M  END
>  <Molecule Name>


>  <status>
-

>  <cas>
224452-66-8

>  <name>
RETAPAMULIN

>  <ID>
954

>  <Smiles>
C[C@@H](CC[C@](CC1)([C@@H]2C1=O)[C@H](C)[C@H]([C@](C)(C1)C=C)O)[C@@]2(C)[C@H]1OC(CS[C@H]1C[C@H](CC2)N(C)[C@H]2C1)=O

$$$$

Actelion Java MolfileCreator 2.0

  0  0  0  0  0  0              0 V3000
M  V30 BEGIN CTAB
M  V30 COUNTS 35 37 0 0 0
M  V30 BEGIN ATOM
M  V30 1 S 3.348 -4.5582 0.0 0
M  V30 2 C 1.848 -4.5582 0.0 0
M  V30 3 C 3.8116 -3.1316 0.0 0
M  V30 4 N 1.3845 -3.1316 0.0 0
M  V30 5 C 0.9663 -5.7717 0.0 0
M  V30 6 C 2.598 -2.25 0.0 0
M  V30 7 C 2.598 -0.75 0.0 0
M  V30 8 C 1.299 0.0 0.0 0
M  V30 9 C 1.299 1.5 0.0 0 CFG=2
M  V30 10 C 0.0 -0.75 0.0 0
M  V30 11 N 0.0 2.25 0.0 0
M  V30 12 C 2.598 2.25 0.0 0
M  V30 13 C -1.299 1.5 0.0 0
M  V30 14 C 2.598 3.75 0.0 0 CFG=1
M  V30 15 O -1.299 0.0 0.0 0
M  V30 16 C -2.598 2.25 0.0 0
M  V30 17 O 2.598 5.25 0.0 0
M  V30 18 C 1.299 4.5 0.0 0 CFG=1
M  V30 19 C -3.8971 1.5 0.0 0 CFG=1
M  V30 20 C 1.299 6.0 0.0 0
M  V30 21 C 0.0 3.75 0.0 0
M  V30 22 O -3.8971 0.0 0.0 0
M  V30 23 C -5.1961 2.25 0.0 0
M  V30 24 C 0.0 6.75 0.0 0
M  V30 25 C -5.1961 3.75 0.0 0
M  V30 26 C -6.6961 2.25 0.0 0
M  V30 27 C -5.9461 0.9509 0.0 0
M  V30 28 C -1.299 6.0 0.0 0
M  V30 29 O -6.4951 4.5 0.0 0
M  V30 30 C -3.8971 4.5 0.0 0 CFG=2
M  V30 31 C -2.598 6.75 0.0 0 CFG=2
M  V30 32 C -3.8971 6.0 0.0 0 CFG=1
M  V30 33 C -2.598 3.75 0.0 0
M  V30 34 C -2.598 8.25 0.0 0
M  V30 35 O -5.1961 6.75 0.0 0
M  V30 END ATOM
M  V30 BEGIN BOND
M  V30 1 1 1 2
M  V30 2 1 1 3
M  V30 3 2 2 4
M  V30 4 1 2 5
M  V30 5 2 3 6
M  V30 6 1 6 7
M  V30 7 2 7 8
M  V30 8 1 9 8 CFG=3
M  V30 9 1 8 10
M  V30 10 1 9 11
M  V30 11 1 9 12
M  V30 12 1 11 13
M  V30 13 1 14 12
M  V30 14 2 13 15
M  V30 15 1 13 16
M  V30 16 1 14 17 CFG=3
M  V30 17 1 18 14
M  V30 18 1 19 16
M  V30 19 1 18 20
M  V30 20 1 18 21
M  V30 21 1 19 22 CFG=1
M  V30 22 1 19 23
M  V30 23 1 20 24
M  V30 24 1 23 25
M  V30 25 1 23 26
M  V30 26 1 23 27
M  V30 27 1 24 28
M  V30 28 2 25 29
M  V30 29 1 30 25
M  V30 30 1 31 28
M  V30 31 1 32 30
M  V30 32 1 30 33 CFG=3
M  V30 33 1 31 34 CFG=3
M  V30 34 1 32 35 CFG=3
M  V30 35 1 4 6
M  V30 36 1 18 17 CFG=1
M  V30 37 1 31 32
M  V30 END BOND
M  V30 BEGIN COLLECTION
M  V30 MDLV30/STERAC1 ATOMS=(7 9 14 18 19 30 31 32)
M  V30 END COLLECTION
M  V30 END CTAB
M  END
>  <Molecule Name>


>  <status>
-

>  <cas>
219989-84-1

>  <name>
IXABEPILONE

>  <ID>
955

>  <Smiles>
C[C@H](CCC[C@]1(C)O[C@@H]1C[C@H](/C(/C)=C/c1csc(C)n1)NC(C[C@H](C(C)(C)C([C@H]1C)=O)O)=O)[C@H]1O

$$$$

Actelion Java MolfileCreator 2.0

  0  0  0  0  0  0              0 V3000
M  V30 BEGIN CTAB
M  V30 COUNTS 73 76 0 0 0
M  V30 BEGIN ATOM
M  V30 1 O 12.8682 -1.8085 0.0 0
M  V30 2 C 12.8321 -0.8092 0.0 0
M  V30 3 N 11.8347 -0.737 0.0 0
M  V30 4 C 13.8217 -0.6653 0.0 0
M  V30 5 C 10.8762 -0.4522 0.0 0 CFG=1
M  V30 6 C 12.0673 -1.7096 0.0 0
M  V30 7 O 14.0372 -1.6418 0.0 0
M  V30 8 C 14.9391 -0.3319 0.0 0 CFG=2
M  V30 9 C 10.0013 0.032 0.0 0
M  V30 10 C 10.1502 -1.1399 0.0 0
M  V30 11 C 11.3413 -2.3973 0.0 0
M  V30 12 O 15.2924 0.6035 0.0 0
M  V30 13 O 14.6461 -1.288 0.0 0
M  V30 14 C 15.5726 -1.1056 0.0 0 CFG=2
M  V30 15 O 9.4252 -0.7853 0.0 0
M  V30 16 O 9.2509 0.6931 0.0 0
M  V30 17 C 10.3827 -2.1124 0.0 0
M  V30 18 C 16.2792 0.7653 0.0 0 CFG=1
M  V30 19 C 16.5594 -0.9438 0.0 0
M  V30 20 C 15.2193 -2.0411 0.0 0
M  V30 21 C 8.6602 1.4999 0.0 0 CFG=1
M  V30 22 C 16.8265 1.795 0.0 0
M  V30 23 C 16.9128 -0.0083 0.0 0
M  V30 24 C 7.7942 0.9999 0.0 0 CFG=2
M  V30 25 C 8.2568 2.415 0.0 0
M  V30 26 C 17.1629 2.7367 0.0 0 CFG=1
M  V30 27 C 6.9282 1.4999 0.0 0
M  V30 28 C 7.7942 0.0 0.0 0
M  V30 29 C 8.0595 3.3953 0.0 0
M  V30 30 O 18.1355 2.5041 0.0 0
M  V30 31 C 17.2889 3.7287 0.0 0
M  V30 32 C 6.0621 0.9999 0.0 0 CFG=2
M  V30 33 O 7.0635 3.3051 0.0 0
M  V30 34 C 8.0775 4.3951 0.0 0 CFG=2
M  V30 35 C 18.4204 1.5456 0.0 0
M  V30 36 C 16.9868 4.682 0.0 0
M  V30 37 C 18.2849 3.8189 0.0 0
M  V30 38 C 5.1961 1.4999 0.0 0
M  V30 39 C 6.0621 0.0 0.0 0
M  V30 40 C 8.5137 5.295 0.0 0
M  V30 41 C 7.1049 4.6277 0.0 0
M  V30 42 C 16.8967 5.6779 0.0 0
M  V30 43 C 4.3301 1.0 0.0 0 CFG=2
M  V30 44 C 5.1961 -0.5 0.0 0
M  V30 45 C 8.7463 6.2676 0.0 0
M  V30 46 C 16.2222 6.4162 0.0 0
M  V30 47 O 3.4641 1.4999 0.0 0
M  V30 48 C 4.3301 0.0 0.0 0 CFG=2
M  V30 49 C 9.3657 7.0526 0.0 0 CFG=2
M  V30 50 C 7.8464 6.7038 0.0 0
M  V30 51 C 15.7222 7.2822 0.0 0
M  V30 52 C 2.598 1.0 0.0 0
M  V30 53 O 3.4641 -0.5 0.0 0
M  V30 54 O 8.6523 7.7533 0.0 0
M  V30 55 C 10.1395 7.6861 0.0 0 CFG=2
M  V30 56 C 14.8 7.6691 0.0 0
M  V30 57 C 3.4641 -1.5 0.0 0
M  V30 58 O 9.5933 8.5238 0.0 0
M  V30 59 C 11.0313 8.1385 0.0 0
M  V30 60 C 13.9826 8.2451 0.0 0 CFG=1
M  V30 61 O 4.3301 -2.0 0.0 0
M  V30 62 C 2.598 -1.9999 0.0 0
M  V30 63 C 8.5948 8.4697 0.0 0
M  V30 64 O 10.678 9.074 0.0 0
M  V30 65 C 11.9995 8.3886 0.0 0 CFG=2
M  V30 66 C 12.9989 8.4247 0.0 0
M  V30 67 C 14.3695 9.1673 0.0 0
M  V30 68 C 1.732 -1.4999 0.0 0
M  V30 69 C 2.598 -2.9999 0.0 0
M  V30 70 C 2.598 -0.9999 0.0 0
M  V30 71 C 11.8556 9.3782 0.0 0
M  V30 72 O 0.866 -1.9999 0.0 0
M  V30 73 O 1.732 -3.5 0.0 0
M  V30 END ATOM
M  V30 BEGIN BOND
M  V30 1 2 1 2
M  V30 2 1 2 3
M  V30 3 1 2 4
M  V30 4 1 5 3 CFG=3
M  V30 5 1 3 6
M  V30 6 2 4 7
M  V30 7 1 8 4
M  V30 8 1 5 9
M  V30 9 1 5 10
M  V30 10 1 6 11
M  V30 11 1 8 12
M  V30 12 1 8 13 CFG=3
M  V30 13 1 14 8
M  V30 14 2 9 15
M  V30 15 1 9 16
M  V30 16 1 10 17
M  V30 17 1 18 12 CFG=1
M  V30 18 1 14 19
M  V30 19 1 14 20 CFG=3
M  V30 20 1 21 16 CFG=1
M  V30 21 1 18 22
M  V30 22 1 18 23
M  V30 23 1 24 21
M  V30 24 1 21 25
M  V30 25 1 26 22
M  V30 26 1 24 27
M  V30 27 1 24 28 CFG=1
M  V30 28 1 25 29
M  V30 29 1 26 30 CFG=3
M  V30 30 1 26 31
M  V30 31 1 32 27 CFG=1
M  V30 32 2 29 33
M  V30 33 1 34 29
M  V30 34 1 30 35
M  V30 35 2 31 36
M  V30 36 1 31 37
M  V30 37 1 32 38
M  V30 38 1 32 39
M  V30 39 1 34 40
M  V30 40 1 34 41 CFG=1
M  V30 41 1 36 42
M  V30 42 1 43 38
M  V30 43 1 39 44
M  V30 44 2 40 45
M  V30 45 2 42 46
M  V30 46 1 43 47 CFG=1
M  V30 47 1 48 43
M  V30 48 1 49 45
M  V30 49 1 45 50
M  V30 50 1 46 51
M  V30 51 1 47 52
M  V30 52 1 48 53 CFG=3
M  V30 53 1 49 54 CFG=3
M  V30 54 1 55 49
M  V30 55 2 51 56
M  V30 56 1 53 57
M  V30 57 1 55 58 CFG=3
M  V30 58 1 55 59
M  V30 59 1 60 56
M  V30 60 2 57 61
M  V30 61 1 57 62
M  V30 62 1 58 63
M  V30 63 2 59 64
M  V30 64 1 65 59
M  V30 65 1 60 66
M  V30 66 1 60 67 CFG=1
M  V30 67 1 62 68
M  V30 68 1 62 69
M  V30 69 1 62 70
M  V30 70 1 65 71 CFG=1
M  V30 71 1 68 72
M  V30 72 1 69 73
M  V30 73 1 11 17
M  V30 74 1 19 23
M  V30 75 1 44 48
M  V30 76 1 65 66
M  V30 END BOND
M  V30 BEGIN COLLECTION
M  V30 MDLV30/STERAC1 ATOMS=(15 5 8 14 18 21 24 26 32 34 43 48 49 55 60 65)
M  V30 END COLLECTION
M  V30 END CTAB
M  END
>  <Molecule Name>


>  <status>
-

>  <cas>
162635-04-3

>  <name>
TEMSIROLIMUS

>  <ID>
956

>  <Smiles>
C[C@@H](C[C@@H](CC[C@@H]1OC(C(C)(CO)CO)=O)C[C@@H]1OC)[C@@H](CC([C@@H](C)/C=C(\C)/[C@@H]([C@@H](C([C@@H](C)C[C@@H](C)/C=C/C=C/C=C(\C)/[C@@H](C[C@@H](CC[C@@H]1C)O[C@@]1(C(C(N1[C@@H]2CCCC1)=O)=O)O)OC)=O)OC)O)=O)OC2=O

$$$$

Actelion Java MolfileCreator 2.0

  0  0  0  0  0  0              0 V3000
M  V30 BEGIN CTAB
M  V30 COUNTS 27 29 0 0 0
M  V30 BEGIN ATOM
M  V30 1 S -5.7986 -0.384 0.0 0
M  V30 2 O -5.2986 0.4819 0.0 0
M  V30 3 O -6.2986 -1.2501 0.0 0
M  V30 4 N -4.9326 -0.884 0.0 0
M  V30 5 N -6.6646 0.1159 0.0 0
M  V30 6 C -4.9326 -1.884 0.0 0
M  V30 7 C -4.0666 -2.384 0.0 0 CFG=1
M  V30 8 N -3.962 -3.3786 0.0 0
M  V30 9 C -3.153 -1.9773 0.0 0
M  V30 10 C -2.9839 -3.5865 0.0 0
M  V30 11 C -2.4839 -2.7205 0.0 0 CFG=1
M  V30 12 S -1.4894 -2.6159 0.0 0
M  V30 13 C -0.9016 -3.4249 0.0 0
M  V30 14 C 0.0983 -3.4249 0.0 0
M  V30 15 C -1.2106 -4.376 0.0 0 CFG=1
M  V30 16 N 0.4073 -4.376 0.0 0
M  V30 17 C 0.6861 -2.6159 0.0 0
M  V30 18 C -0.4016 -4.9638 0.0 0 CFG=1
M  V30 19 C -2.1617 -4.685 0.0 0
M  V30 20 C 0.9951 -5.185 0.0 0
M  V30 21 O 1.6806 -2.7205 0.0 0
M  V30 22 O 0.2794 -1.7024 0.0 0 CHG=-1
M  V30 23 C 0.1861 -5.7728 0.0 0 CFG=2
M  V30 24 O 1.9828 -5.3415 0.0 0
M  V30 25 C 0.0297 -6.7605 0.0 0 CFG=2
M  V30 26 O -0.9038 -7.1189 0.0 0
M  V30 27 C 0.8068 -7.3898 0.0 0
M  V30 END ATOM
M  V30 BEGIN BOND
M  V30 1 2 1 2
M  V30 2 2 1 3
M  V30 3 1 1 4
M  V30 4 1 1 5
M  V30 5 1 4 6
M  V30 6 1 7 6 CFG=3
M  V30 7 1 7 8
M  V30 8 1 7 9
M  V30 9 1 8 10
M  V30 10 1 11 9
M  V30 11 1 11 12 CFG=3
M  V30 12 1 12 13
M  V30 13 2 13 14
M  V30 14 1 15 13
M  V30 15 1 14 16
M  V30 16 1 14 17
M  V30 17 1 18 15
M  V30 18 1 15 19 CFG=1
M  V30 19 1 16 20
M  V30 20 2 17 21
M  V30 21 1 17 22
M  V30 22 1 23 18
M  V30 23 2 20 24
M  V30 24 1 25 23
M  V30 25 1 25 26 CFG=1
M  V30 26 1 25 27
M  V30 27 1 10 11
M  V30 28 1 18 16 CFG=1
M  V30 29 1 23 20 CFG=3
M  V30 END BOND
M  V30 BEGIN COLLECTION
M  V30 MDLV30/STERAC1 ATOMS=(6 7 11 15 18 23 25)
M  V30 END COLLECTION
M  V30 END CTAB
M  END
>  <Molecule Name>


>  <status>
DISCONTINUED

>  <cas>
148016-81-3

>  <name>
DORIPENEM

>  <ID>
957

>  <Smiles>
C[C@H]([C@H]([C@@H]([C@H]1C)N2C(C([O-])=O)=C1S[C@@H]1CN[C@H](CNS(N)(=O)=O)C1)C2=O)O

$$$$

Actelion Java MolfileCreator 2.0

  0  0  0  0  0  0              0 V3000
M  V30 BEGIN CTAB
M  V30 COUNTS 37 41 0 0 0
M  V30 BEGIN ATOM
M  V30 1 F 2.9641 5.366 0.0 0
M  V30 2 C 3.4641 4.4999 0.0 0
M  V30 3 F 3.9641 5.3659 0.0 0
M  V30 4 C 4.3301 4.0 0.0 0
M  V30 5 C 2.598 4.0 0.0 0
M  V30 6 C 4.3301 3.0 0.0 0
M  V30 7 C 2.598 2.9999 0.0 0
M  V30 8 C 3.4641 2.5 0.0 0
M  V30 9 C 3.4641 1.5 0.0 0
M  V30 10 O 4.3301 1.0 0.0 0
M  V30 11 N 2.598 1.0 0.0 0
M  V30 12 C 2.598 0.0 0.0 0 CFG=2
M  V30 13 C 3.4641 -0.5 0.0 0
M  V30 14 C 1.732 -0.5 0.0 0
M  V30 15 C 4.3301 0.0 0.0 0
M  V30 16 C 3.4641 -1.4999 0.0 0
M  V30 17 C 0.866 0.1131 0.0 0
M  V30 18 C 5.1961 -0.4999 0.0 0
M  V30 19 C 4.3301 -1.9999 0.0 0
M  V30 20 N 0.866 0.9999 0.0 0
M  V30 21 C 5.1961 -1.4999 0.0 0
M  V30 22 C 0.057 1.5877 0.0 0 CFG=1
M  V30 23 C 1.675 1.5877 0.0 0 CFG=2
M  V30 24 C 0.0 0.2251 0.0 0
M  V30 25 C 0.366 2.5388 0.0 0
M  V30 26 C 1.732 0.2251 0.0 0
M  V30 27 C 1.366 2.5388 0.0 0
M  V30 28 C 0.8395 -0.3402 0.0 0 CFG=2
M  V30 29 N 0.866 -1.2748 0.0 0
M  V30 30 C 1.675 -1.8625 0.0 0
M  V30 31 C 0.057 -1.8625 0.0 0
M  V30 32 N 1.366 -2.8136 0.0 0
M  V30 33 C 2.626 -1.5535 0.0 0
M  V30 34 N 0.366 -2.8136 0.0 0
M  V30 35 C -0.894 -1.5535 0.0 0
M  V30 36 C 2.8041 -0.6272 0.0 0
M  V30 37 C 3.3692 -2.2227 0.0 0
M  V30 END ATOM
M  V30 BEGIN BOND
M  V30 1 1 1 2
M  V30 2 1 2 3
M  V30 3 1 2 4
M  V30 4 1 2 5
M  V30 5 1 4 6
M  V30 6 1 5 7
M  V30 7 1 6 8
M  V30 8 1 8 9
M  V30 9 2 9 10
M  V30 10 1 9 11
M  V30 11 1 12 11 CFG=3
M  V30 12 1 12 13
M  V30 13 1 12 14
M  V30 14 2 13 15
M  V30 15 1 13 16
M  V30 16 1 14 17
M  V30 17 1 15 18
M  V30 18 2 16 19
M  V30 19 1 17 20
M  V30 20 2 18 21
M  V30 21 1 22 20 CFG=3
M  V30 22 1 23 20 CFG=3
M  V30 23 1 22 24
M  V30 24 1 22 25
M  V30 25 1 23 26
M  V30 26 1 23 27
M  V30 27 1 28 24
M  V30 28 1 28 29 CFG=3
M  V30 29 1 29 30
M  V30 30 1 29 31
M  V30 31 2 30 32
M  V30 32 1 30 33
M  V30 33 2 31 34
M  V30 34 1 31 35
M  V30 35 1 33 36
M  V30 36 1 33 37
M  V30 37 1 7 8
M  V30 38 1 19 21
M  V30 39 1 25 27
M  V30 40 1 26 28
M  V30 41 1 32 34
M  V30 END BOND
M  V30 BEGIN COLLECTION
M  V30 MDLV30/STEABS ATOMS=(3 22 23 28)
M  V30 MDLV30/STERAC1 ATOMS=(1 12)
M  V30 END COLLECTION
M  V30 END CTAB
M  END
>  <Molecule Name>


>  <status>
-

>  <cas>
376348-65-1

>  <name>
MARAVIROC

>  <ID>
958

>  <Smiles>
CC(C)c1nnc(C)n1[C@H]1C[C@H](CC2)N(CCC(c3ccccc3)NC(C(CC3)CCC3(F)F)=O)[C@H]2C1

$$$$

Actelion Java MolfileCreator 2.0

  0  0  0  0  0  0              0 V3000
M  V30 BEGIN CTAB
M  V30 COUNTS 28 31 0 0 0
M  V30 BEGIN ATOM
M  V30 1 O 3.8971 0.0 0.0 0
M  V30 2 C 2.598 -0.75 0.0 0
M  V30 3 N 1.299 0.0 0.0 0
M  V30 4 C 2.598 -2.25 0.0 0
M  V30 5 C 0.0 -0.75 0.0 0
M  V30 6 C 1.3845 -3.1316 0.0 0
M  V30 7 C 3.8116 -3.1316 0.0 0
M  V30 8 N 1.848 -4.5582 0.0 0
M  V30 9 N 3.348 -4.5582 0.0 0
M  V30 10 C 4.2297 -5.7717 0.0 0
M  V30 11 N 3.6196 -7.1421 0.0 0
M  V30 12 N 5.7215 -5.6149 0.0 0
M  V30 13 C 4.5013 -8.3556 0.0 0
M  V30 14 C 6.6032 -6.8285 0.0 0
M  V30 15 N 3.8912 -9.7259 0.0 0
M  V30 16 C 5.9931 -8.1988 0.0 0
M  V30 17 N 8.0949 -6.9853 0.0 0
M  V30 18 N 7.1078 -9.2025 0.0 0
M  V30 19 C 8.4068 -8.4525 0.0 0
M  V30 20 C 9.0986 -5.8705 0.0 0 CFG=1
M  V30 21 O 10.5904 -6.0273 0.0 0
M  V30 22 C 8.7868 -4.4033 0.0 0 CFG=1
M  V30 23 C 11.2005 -4.657 0.0 0 CFG=2
M  V30 24 O 7.4165 -3.7932 0.0 0
M  V30 25 C 10.0858 -3.6533 0.0 0 CFG=2
M  V30 26 C 12.6678 -4.3452 0.0 0
M  V30 27 O 10.2426 -2.1615 0.0 0
M  V30 28 O 13.1313 -2.9186 0.0 0
M  V30 END ATOM
M  V30 BEGIN BOND
M  V30 1 2 1 2
M  V30 2 1 2 3
M  V30 3 1 2 4
M  V30 4 1 3 5
M  V30 5 1 4 6
M  V30 6 2 4 7
M  V30 7 2 6 8
M  V30 8 1 7 9
M  V30 9 1 9 10
M  V30 10 2 10 11
M  V30 11 1 10 12
M  V30 12 1 11 13
M  V30 13 2 12 14
M  V30 14 1 13 15
M  V30 15 2 13 16
M  V30 16 1 14 17
M  V30 17 1 16 18
M  V30 18 1 17 19
M  V30 19 1 20 17 CFG=3
M  V30 20 1 20 21
M  V30 21 1 22 20
M  V30 22 1 23 21
M  V30 23 1 22 24 CFG=1
M  V30 24 1 25 22
M  V30 25 1 23 26 CFG=3
M  V30 26 1 25 27 CFG=1
M  V30 27 1 26 28
M  V30 28 1 8 9
M  V30 29 1 14 16
M  V30 30 2 18 19
M  V30 31 1 23 25
M  V30 END BOND
M  V30 BEGIN COLLECTION
M  V30 MDLV30/STERAC1 ATOMS=(4 20 22 23 25)
M  V30 END COLLECTION
M  V30 END CTAB
M  END
>  <Molecule Name>


>  <status>
-

>  <cas>
313348-27-5

>  <name>
REGADENOSON

>  <ID>
959

>  <Smiles>
CNC(c1cn(-c2nc(N)c3ncn([C@H]([C@H]4O)O[C@@H](CO)[C@@H]4O)c3n2)nc1)=O

$$$$

Actelion Java MolfileCreator 2.0

  0  0  0  0  0  0              0 V3000
M  V30 BEGIN CTAB
M  V30 COUNTS 21 22 0 0 0
M  V30 BEGIN ATOM
M  V30 1 O 4.3301 0.9999 0.0 0
M  V30 2 C 4.3301 0.0 0.0 0
M  V30 3 O 3.4641 -0.5 0.0 0
M  V30 4 C 5.1961 -0.5 0.0 0 CFG=1
M  V30 5 C 2.598 0.0 0.0 0
M  V30 6 C 6.0621 0.0 0.0 0
M  V30 7 C 5.1961 -1.4999 0.0 0
M  V30 8 C 1.732 -0.5 0.0 0
M  V30 9 C 6.9282 -0.5 0.0 0
M  V30 10 C 6.0621 0.9999 0.0 0
M  V30 11 O 6.0871 -1.046 0.0 0
M  V30 12 C 4.3871 -2.0877 0.0 0
M  V30 13 C 6.0051 -2.0877 0.0 0
M  V30 14 N 0.866 0.0 0.0 0
M  V30 15 C 7.7942 0.0 0.0 0
M  V30 16 C 6.9282 1.4999 0.0 0
M  V30 17 C 4.6961 -3.0388 0.0 0
M  V30 18 C 5.6961 -3.0388 0.0 0
M  V30 19 C 0.866 1.0 0.0 0
M  V30 20 C 0.0 -0.5 0.0 0
M  V30 21 C 7.7942 0.9999 0.0 0
M  V30 END ATOM
M  V30 BEGIN BOND
M  V30 1 2 1 2
M  V30 2 1 2 3
M  V30 3 1 4 2 CFG=1
M  V30 4 1 3 5
M  V30 5 1 4 6
M  V30 6 1 4 7
M  V30 7 1 5 8
M  V30 8 2 6 9
M  V30 9 1 6 10
M  V30 10 1 7 11
M  V30 11 1 7 12
M  V30 12 1 7 13
M  V30 13 1 8 14
M  V30 14 1 9 15
M  V30 15 2 10 16
M  V30 16 1 12 17
M  V30 17 1 13 18
M  V30 18 1 14 19
M  V30 19 1 14 20
M  V30 20 2 15 21
M  V30 21 1 16 21
M  V30 22 1 17 18
M  V30 END BOND
M  V30 BEGIN COLLECTION
M  V30 MDLV30/STERAC1 ATOMS=(1 4)
M  V30 END COLLECTION
M  V30 END CTAB
M  END
>  <Molecule Name>


>  <status>
-

>  <cas>
204990-62-5

>  <name>
CYCLOPENTOLATE

>  <ID>
960

>  <Smiles>
CN(C)CCOC(C(C1(CCCC1)O)c1ccccc1)=O

$$$$

Actelion Java MolfileCreator 2.0

  0  0  0  0  0  0              0 V3000
M  V30 BEGIN CTAB
M  V30 COUNTS 24 27 0 0 0
M  V30 BEGIN ATOM
M  V30 1 S 1.732 -0.5 0.0 0
M  V30 2 O 1.232 -1.366 0.0 0
M  V30 3 O 2.232 0.366 0.0 0
M  V30 4 O 0.866 0.0 0.0 0
M  V30 5 O 2.598 -0.9999 0.0 0
M  V30 6 C 0.0 -0.5 0.0 0
M  V30 7 C 0.0 -1.5 0.0 0
M  V30 8 C -0.866 0.0 0.0 0
M  V30 9 C -0.866 -2.0 0.0 0
M  V30 10 C -1.732 -0.4999 0.0 0
M  V30 11 C -1.732 -1.4999 0.0 0
M  V30 12 C -0.866 -2.9999 0.0 0
M  V30 13 C -2.598 -1.9999 0.0 0 CFG=2
M  V30 14 C -1.732 -3.4999 0.0 0
M  V30 15 C -2.598 -2.9999 0.0 0 CFG=1
M  V30 16 C -3.4641 -1.4999 0.0 0
M  V30 17 C -3.4641 -3.4999 0.0 0 CFG=1
M  V30 18 C -4.3301 -1.9999 0.0 0
M  V30 19 C -4.3301 -2.9999 0.0 0 CFG=2
M  V30 20 C -3.672 -4.4781 0.0 0
M  V30 21 C -5.0732 -3.6691 0.0 0
M  V30 22 C -5.2436 -2.5932 0.0 0
M  V30 23 C -4.6665 -4.5826 0.0 0
M  V30 24 O -6.0514 -3.4612 0.0 0
M  V30 END ATOM
M  V30 BEGIN BOND
M  V30 1 2 1 2
M  V30 2 2 1 3
M  V30 3 1 1 4
M  V30 4 1 1 5
M  V30 5 1 4 6
M  V30 6 2 6 7
M  V30 7 1 6 8
M  V30 8 1 7 9
M  V30 9 2 8 10
M  V30 10 2 9 11
M  V30 11 1 9 12
M  V30 12 1 13 11
M  V30 13 1 12 14
M  V30 14 1 15 13
M  V30 15 1 13 16 CFG=3
M  V30 16 1 17 15
M  V30 17 1 16 18
M  V30 18 1 19 17
M  V30 19 1 17 20 CFG=3
M  V30 20 1 19 21
M  V30 21 1 19 22 CFG=3
M  V30 22 1 20 23
M  V30 23 2 21 24
M  V30 24 1 10 11
M  V30 25 1 15 14 CFG=1
M  V30 26 1 18 19
M  V30 27 1 21 23
M  V30 END BOND
M  V30 BEGIN COLLECTION
M  V30 MDLV30/STERAC1 ATOMS=(4 13 15 17 19)
M  V30 END COLLECTION
M  V30 END CTAB
M  END
>  <Molecule Name>


>  <status>
-

>  <cas>
481-97-0

>  <name>
ESTROPIPATE

>  <ID>
961

>  <Smiles>
C[C@](CC1)([C@@H](CC2)[C@H](CC3)[C@H]1c(cc1)c3cc1OS(O)(=O)=O)C2=O

$$$$

Actelion Java MolfileCreator 2.0

  0  0  0  0  0  0              0 V3000
M  V30 BEGIN CTAB
M  V30 COUNTS 14 15 0 0 0
M  V30 BEGIN ATOM
M  V30 1 Cl 1.299 0.0 0.0 0
M  V30 2 C 0.0 -0.75 0.0 0
M  V30 3 N -1.3703 -0.1398 0.0 0
M  V30 4 N -0.1567 -2.2417 0.0 0
M  V30 5 C -2.374 -1.2546 0.0 0
M  V30 6 C -1.624 -2.5536 0.0 0
M  V30 7 N -3.874 -1.2546 0.0 0
M  V30 8 C -2.374 -3.8526 0.0 0
M  V30 9 C -4.624 -2.5536 0.0 0
M  V30 10 C -4.624 0.0444 0.0 0
M  V30 11 O -1.624 -5.1517 0.0 0
M  V30 12 N -3.874 -3.8526 0.0 0
M  V30 13 O -6.124 -2.5536 0.0 0
M  V30 14 C -4.624 -5.1517 0.0 0
M  V30 END ATOM
M  V30 BEGIN BOND
M  V30 1 1 1 2
M  V30 2 1 2 3
M  V30 3 2 2 4
M  V30 4 2 3 5
M  V30 5 1 4 6
M  V30 6 1 5 7
M  V30 7 2 6 8
M  V30 8 1 7 9
M  V30 9 1 7 10
M  V30 10 1 8 11
M  V30 11 1 8 12
M  V30 12 2 9 13
M  V30 13 1 12 14
M  V30 14 1 5 6
M  V30 15 1 9 12
M  V30 END BOND
M  V30 END CTAB
M  END
>  <Molecule Name>


>  <status>
-

>  <cas>
85-18-7

>  <name>
DIMENHYDRINATE

>  <ID>
962

>  <Smiles>
CN(C1=NC(Cl)=NC1=C(N1C)O)C1=O

$$$$

Actelion Java MolfileCreator 2.0

  0  0  0  0  0  0              0 V3000
M  V30 BEGIN CTAB
M  V30 COUNTS 32 35 0 0 0
M  V30 BEGIN ATOM
M  V30 1 O 2.598 -4.9999 0.0 0
M  V30 2 C 3.4641 -4.5 0.0 0
M  V30 3 C 4.3301 -5.0 0.0 0
M  V30 4 C 3.4641 -3.5 0.0 0
M  V30 5 C 4.3301 -6.0 0.0 0
M  V30 6 C 5.1961 -4.5 0.0 0
M  V30 7 C 2.598 -3.0 0.0 0
M  V30 8 C 4.3301 -3.0 0.0 0 CFG=2
M  V30 9 O 3.4641 -6.4999 0.0 0
M  V30 10 C 5.1961 -6.5 0.0 0
M  V30 11 C 6.0621 -5.0 0.0 0
M  V30 12 C 5.1961 -3.5 0.0 0 CFG=2
M  V30 13 O 1.732 -3.4999 0.0 0
M  V30 14 C 2.598 -2.0 0.0 0 CFG=1
M  V30 15 C 4.3301 -2.0 0.0 0 CFG=2
M  V30 16 C 6.0621 -6.0 0.0 0
M  V30 17 C 6.0621 -3.0 0.0 0
M  V30 18 O 1.732 -2.5 0.0 0
M  V30 19 C 1.732 -1.5 0.0 0
M  V30 20 C 3.4641 -1.5 0.0 0 CFG=2
M  V30 21 O 5.1961 -1.5 0.0 0
M  V30 22 O 0.866 -1.9999 0.0 0
M  V30 23 C 1.732 -0.5 0.0 0
M  V30 24 C 3.4641 -0.5 0.0 0 CFG=2
M  V30 25 C 2.598 0.0 0.0 0
M  V30 26 C 0.866 0.0 0.0 0
M  V30 27 N 4.3301 0.0 0.0 0
M  V30 28 O 2.598 1.0 0.0 0
M  V30 29 O 0.866 1.0 0.0 0
M  V30 30 N 0.0 -0.5 0.0 0
M  V30 31 C 5.1961 -0.5 0.0 0
M  V30 32 C 4.3301 0.9999 0.0 0
M  V30 END ATOM
M  V30 BEGIN BOND
M  V30 1 2 1 2
M  V30 2 1 2 3
M  V30 3 1 2 4
M  V30 4 2 3 5
M  V30 5 1 3 6
M  V30 6 2 4 7
M  V30 7 1 8 4 CFG=1
M  V30 8 1 5 9
M  V30 9 1 5 10
M  V30 10 2 6 11
M  V30 11 1 12 6
M  V30 12 1 7 13
M  V30 13 1 14 7
M  V30 14 1 15 8
M  V30 15 2 10 16
M  V30 16 1 12 17 CFG=3
M  V30 17 1 14 18 CFG=3
M  V30 18 1 14 19
M  V30 19 1 20 14
M  V30 20 1 15 21 CFG=3
M  V30 21 2 19 22
M  V30 22 1 19 23
M  V30 23 1 20 24 CFG=1
M  V30 24 2 23 25
M  V30 25 1 23 26
M  V30 26 1 24 27 CFG=3
M  V30 27 1 25 28
M  V30 28 2 26 29
M  V30 29 1 26 30
M  V30 30 1 27 31
M  V30 31 1 27 32
M  V30 32 1 8 12
M  V30 33 1 11 16
M  V30 34 1 20 15
M  V30 35 1 24 25
M  V30 END BOND
M  V30 BEGIN COLLECTION
M  V30 MDLV30/STERAC1 ATOMS=(6 8 12 14 15 20 24)
M  V30 END COLLECTION
M  V30 END CTAB
M  END
>  <Molecule Name>


>  <status>
-

>  <cas>
564-25-0

>  <name>
DOXYCYCLINE

>  <ID>
963

>  <Smiles>
C[C@@H]([C@H]([C@H]([C@H]([C@H](C(O)=C(C(N)=O)C1=O)N(C)C)[C@@]11O)O)C2=C1O)c1cccc(O)c1C2=O

$$$$

Actelion Java MolfileCreator 2.0

  0  0  0  0  0  0              0 V3000
M  V30 BEGIN CTAB
M  V30 COUNTS 51 53 0 0 0
M  V30 BEGIN ATOM
M  V30 1 O 3.4641 -1.3749 0.0 0
M  V30 2 C 3.504 -0.2789 0.0 0
M  V30 3 O 4.456 0.0669 0.0 0
M  V30 4 C 2.4465 -0.1527 0.0 0 CFG=2
M  V30 5 C 5.1961 -0.4999 0.0 0 CFG=2
M  V30 6 C 1.6979 -0.6286 0.0 0 CFG=2
M  V30 7 C 2.3954 0.9105 0.0 0
M  V30 8 C 5.1961 -1.4999 0.0 0 CFG=2
M  V30 9 C 6.0621 0.0 0.0 0
M  V30 10 O 0.866 0.0 0.0 0
M  V30 11 C 1.732 -1.5 0.0 0 CFG=2
M  V30 12 O 4.1961 -1.4999 0.0 0
M  V30 13 C 6.0621 -1.9999 0.0 0 CFG=1
M  V30 14 C 4.7479 -2.347 0.0 0
M  V30 15 C 6.0621 1.0 0.0 0
M  V30 16 C 0.0 -0.5 0.0 0 CFG=1
M  V30 17 C 2.598 -1.9999 0.0 0 CFG=2
M  V30 18 C 0.866 -2.0 0.0 0
M  V30 19 O 6.9282 -1.4999 0.0 0
M  V30 20 C 6.0621 -2.9999 0.0 0 CFG=1
M  V30 21 O -0.866 0.0 0.0 0
M  V30 22 C 0.0 -1.4999 0.0 0
M  V30 23 O 3.4641 -1.6874 0.0 0
M  V30 24 C 2.598 -2.9999 0.0 0 CFG=1
M  V30 25 C 5.1961 -3.4999 0.0 0
M  V30 26 C 6.9282 -3.4999 0.0 0
M  V30 27 C -1.732 -0.4999 0.0 0 CFG=1
M  V30 28 C -0.866 -1.9999 0.0 0 CFG=1
M  V30 29 C 3.3697 -0.5874 0.0 0 CFG=1
M  V30 30 O 1.598 -2.9999 0.0 0
M  V30 31 C 3.4641 -3.4999 0.0 0
M  V30 32 C 2.098 -3.866 0.0 0
M  V30 33 O 5.1961 -4.4999 0.0 0
M  V30 34 C 4.3301 -2.9999 0.0 0 CFG=2
M  V30 35 C -1.732 -1.4999 0.0 0 CFG=2
M  V30 36 C -2.598 0.0 0.0 0
M  V30 37 O -0.866 -2.9999 0.0 0
M  V30 38 C -1.732 -2.4999 0.0 0
M  V30 39 O 4.3206 -0.2278 0.0 0
M  V30 40 C 2.6948 0.0911 0.0 0 CFG=1
M  V30 41 C 4.3301 -1.9999 0.0 0
M  V30 42 O -2.598 -1.9999 0.0 0
M  V30 43 C -1.732 -3.4999 0.0 0
M  V30 44 C 4.3301 1.0 0.0 0 CFG=2
M  V30 45 O 1.792 -0.274 0.0 0
M  V30 46 C 2.7254 1.0562 0.0 0 CFG=1
M  V30 47 C 3.4641 1.5 0.0 0
M  V30 48 C 5.1961 1.5 0.0 0
M  V30 49 N 1.732 1.5 0.0 0
M  V30 50 C 1.732 2.5 0.0 0
M  V30 51 C 0.866 1.0 0.0 0
M  V30 END ATOM
M  V30 BEGIN BOND
M  V30 1 2 1 2
M  V30 2 1 2 3
M  V30 3 1 4 2
M  V30 4 1 5 3
M  V30 5 1 6 4
M  V30 6 1 4 7 CFG=3
M  V30 7 1 8 5
M  V30 8 1 5 9 CFG=1
M  V30 9 1 6 10 CFG=1
M  V30 10 1 11 6
M  V30 11 1 8 12 CFG=1
M  V30 12 1 13 8
M  V30 13 1 8 14
M  V30 14 1 9 15
M  V30 15 1 16 10 CFG=3
M  V30 16 1 17 11
M  V30 17 1 11 18 CFG=3
M  V30 18 1 13 19 CFG=1
M  V30 19 1 20 13
M  V30 20 1 16 21
M  V30 21 1 16 22
M  V30 22 1 17 23 CFG=3
M  V30 23 1 24 17
M  V30 24 1 20 25
M  V30 25 1 20 26 CFG=3
M  V30 26 1 27 21
M  V30 27 1 28 22
M  V30 28 1 29 23 CFG=3
M  V30 29 1 24 30 CFG=3
M  V30 30 1 24 31
M  V30 31 1 24 32
M  V30 32 2 25 33
M  V30 33 1 34 25
M  V30 34 1 35 27
M  V30 35 1 27 36 CFG=1
M  V30 36 1 28 37
M  V30 37 1 28 38 CFG=1
M  V30 38 1 29 39
M  V30 39 1 40 29
M  V30 40 1 34 41 CFG=3
M  V30 41 1 35 42 CFG=3
M  V30 42 1 37 43
M  V30 43 1 44 39
M  V30 44 1 40 45 CFG=1
M  V30 45 1 46 40
M  V30 46 1 44 47
M  V30 47 1 44 48 CFG=3
M  V30 48 1 46 49 CFG=3
M  V30 49 1 49 50
M  V30 50 1 49 51
M  V30 51 1 28 35
M  V30 52 1 31 34
M  V30 53 1 46 47
M  V30 END BOND
M  V30 BEGIN COLLECTION
M  V30 MDLV30/STERAC1 ATOMS=(18 4 5 6 8 11 13 16 17 20 24 27 28 29 34 35 40 44 46)
M  V30 END COLLECTION
M  V30 END CTAB
M  END
>  <Molecule Name>


>  <status>
-

>  <cas>
114-07-8

>  <name>
ERYTHROMYCIN

>  <ID>
964

>  <Smiles>
CC[C@@H]([C@@](C)([C@H]([C@H](C)C([C@@H](C)C[C@@](C)([C@H]([C@H](C)[C@H]([C@@H]1C)O[C@H](C[C@]2(C)OC)O[C@H](C)[C@H]2O)O[C@H]([C@H]2O)O[C@@H](C)C[C@H]2N(C)C)O)=O)O)O)OC1=O

$$$$

Actelion Java MolfileCreator 2.0

  0  0  0  0  0  0              0 V3000
M  V30 BEGIN CTAB
M  V30 COUNTS 55 57 0 0 0
M  V30 BEGIN ATOM
M  V30 1 O 4.1052 -3.1746 0.0 0
M  V30 2 C 5.4512 -2.0999 0.0 0
M  V30 3 O 6.6312 -2.9046 0.0 0
M  V30 4 C 5.0156 -0.7338 0.0 0 CFG=2
M  V30 5 C 6.5131 -4.7615 0.0 0 CFG=2
M  V30 6 C 3.9192 0.0 0.0 0 CFG=2
M  V30 7 C 6.2692 0.2644 0.0 0
M  V30 8 C 5.2257 -5.2798 0.0 0 CFG=2
M  V30 9 C 7.5914 -5.3767 0.0 0
M  V30 10 O 3.9192 1.5085 0.0 0
M  V30 11 C 2.6128 -0.7542 0.0 0 CFG=2
M  V30 12 O 4.4714 -3.9734 0.0 0
M  V30 13 C 5.2257 -6.7883 0.0 0 CFG=1
M  V30 14 C 3.7677 -5.3673 0.0 0
M  V30 15 C 7.5247 -6.9975 0.0 0
M  V30 16 C 2.6128 2.2627 0.0 0 CFG=1
M  V30 17 C 2.6128 -2.2627 0.0 0 CFG=2
M  V30 18 C 1.3064 0.0 0.0 0
M  V30 19 O 6.5321 -7.5426 0.0 0
M  V30 20 C 3.9192 -7.5426 0.0 0 CFG=1
M  V30 21 O 2.6128 3.7713 0.0 0
M  V30 22 C 1.3064 1.5085 0.0 0
M  V30 23 O 3.7245 -2.852 0.0 0
M  V30 24 C 1.3064 -3.017 0.0 0 CFG=1
M  V30 25 C 2.6128 -6.7883 0.0 0
M  V30 26 C 3.9192 -9.0511 0.0 0
M  V30 27 C 1.3064 4.5255 0.0 0 CFG=1
M  V30 28 C 0.0 2.2627 0.0 0 CFG=1
M  V30 29 C 5.0199 -2.2592 0.0 0 CFG=1
M  V30 30 O 0.5521 -1.7106 0.0 0
M  V30 31 C 1.3064 -4.5255 0.0 0
M  V30 32 C -0.202 -3.017 0.0 0
M  V30 33 O 1.3064 -7.5426 0.0 0
M  V30 34 C 2.6128 -5.2798 0.0 0 CFG=2
M  V30 35 C 0.0 3.7713 0.0 0 CFG=2
M  V30 36 C 1.3064 6.0341 0.0 0
M  V30 37 O -1.3064 1.5085 0.0 0
M  V30 38 C -1.3064 3.017 0.0 0
M  V30 39 O 5.5594 -0.7455 0.0 0
M  V30 40 C 6.2815 -3.1316 0.0 0 CFG=1
M  V30 41 C 3.9192 -4.5255 0.0 0
M  V30 42 O -1.3064 4.5255 0.0 0
M  V30 43 C -2.6128 2.2627 0.0 0
M  V30 44 C 6.6665 -0.1352 0.0 0 CFG=2
M  V30 45 O 6.4064 -4.2741 0.0 0
M  V30 46 C 7.8385 -2.2627 0.0 0 CFG=1
M  V30 47 C 7.8385 -0.7542 0.0 0
M  V30 48 C 6.5321 1.5085 0.0 0
M  V30 49 C 8.066 -5.1906 0.0 0
M  V30 50 N 9.1449 -3.017 0.0 0
M  V30 51 O 8.8828 -4.5649 0.0 0
M  V30 52 C 8.0762 -6.8318 0.0 0
M  V30 53 C 10.4514 -2.2627 0.0 0
M  V30 54 C 9.4116 -4.7922 0.0 0
M  V30 55 C 9.1449 -7.5426 0.0 0
M  V30 END ATOM
M  V30 BEGIN BOND
M  V30 1 2 1 2
M  V30 2 1 2 3
M  V30 3 1 4 2
M  V30 4 1 5 3
M  V30 5 1 6 4
M  V30 6 1 4 7 CFG=3
M  V30 7 1 8 5
M  V30 8 1 5 9 CFG=1
M  V30 9 1 6 10 CFG=1
M  V30 10 1 11 6
M  V30 11 1 8 12 CFG=1
M  V30 12 1 13 8
M  V30 13 1 8 14
M  V30 14 1 9 15
M  V30 15 1 16 10 CFG=3
M  V30 16 1 17 11
M  V30 17 1 11 18 CFG=3
M  V30 18 1 13 19 CFG=1
M  V30 19 1 20 13
M  V30 20 1 16 21
M  V30 21 1 16 22
M  V30 22 1 17 23 CFG=3
M  V30 23 1 24 17
M  V30 24 1 20 25
M  V30 25 1 20 26 CFG=3
M  V30 26 1 27 21
M  V30 27 1 28 22
M  V30 28 1 29 23 CFG=1
M  V30 29 1 24 30 CFG=3
M  V30 30 1 24 31
M  V30 31 1 24 32
M  V30 32 2 25 33
M  V30 33 1 34 25
M  V30 34 1 35 27
M  V30 35 1 27 36 CFG=1
M  V30 36 1 28 37
M  V30 37 1 28 38 CFG=1
M  V30 38 1 29 39
M  V30 39 1 40 29
M  V30 40 1 34 41 CFG=3
M  V30 41 1 35 42 CFG=3
M  V30 42 1 37 43
M  V30 43 1 44 39
M  V30 44 1 40 45 CFG=3
M  V30 45 1 46 40
M  V30 46 1 44 47
M  V30 47 1 44 48 CFG=1
M  V30 48 1 45 49
M  V30 49 1 46 50 CFG=1
M  V30 50 2 49 51
M  V30 51 1 49 52
M  V30 52 1 50 53
M  V30 53 1 50 54
M  V30 54 1 52 55
M  V30 55 1 28 35
M  V30 56 1 31 34
M  V30 57 1 46 47
M  V30 END BOND
M  V30 BEGIN COLLECTION
M  V30 MDLV30/STERAC1 ATOMS=(18 4 5 6 8 11 13 16 17 20 24 27 28 29 34 35 40 44 46)
M  V30 END COLLECTION
M  V30 END CTAB
M  END
>  <Molecule Name>


>  <status>
DISCONTINUED

>  <cas>
3521-62-8

>  <name>
ERYTHROMYCIN ESTOLATE

>  <ID>
965

>  <Smiles>
CC[C@@H]([C@@](C)([C@H]([C@H](C)C([C@@H](C)C[C@@](C)([C@H]([C@H](C)[C@H]([C@@H]1C)O[C@H](C[C@]2(C)OC)O[C@H](C)[C@H]2O)O[C@H]([C@H]2OC(CC)=O)O[C@@H](C)C[C@H]2N(C)C)O)=O)O)O)OC1=O

$$$$

Actelion Java MolfileCreator 2.0

  0  0  0  0  0  0              0 V3000
M  V30 BEGIN CTAB
M  V30 COUNTS 60 62 0 0 0
M  V30 BEGIN ATOM
M  V30 1 O 9.1987 -2.8069 0.0 0
M  V30 2 C 10.6601 -2.1432 0.0 0
M  V30 3 O 11.9343 -3.3222 0.0 0
M  V30 4 C 10.6193 -0.8447 0.0 0 CFG=2
M  V30 5 C 11.604 -4.7069 0.0 0 CFG=2
M  V30 6 C 9.1206 0.0 0.0 0 CFG=2
M  V30 7 C 11.9211 -0.2834 0.0 0
M  V30 8 C 10.4236 -5.2658 0.0 0 CFG=2
M  V30 9 C 12.7837 -5.5001 0.0 0
M  V30 10 O 9.1206 1.5045 0.0 0
M  V30 11 C 7.8177 -0.7522 0.0 0 CFG=2
M  V30 12 O 9.6713 -3.9628 0.0 0
M  V30 13 C 10.4236 -6.7703 0.0 0 CFG=1
M  V30 14 C 8.9695 -5.353 0.0 0
M  V30 15 C 12.8359 -7.0928 0.0 0
M  V30 16 C 7.8177 2.2567 0.0 0 CFG=1
M  V30 17 C 7.8177 -2.2567 0.0 0 CFG=2
M  V30 18 C 6.5147 0.0 0.0 0
M  V30 19 O 11.7265 -7.5225 0.0 0
M  V30 20 C 9.1206 -7.5225 0.0 0 CFG=1
M  V30 21 O 7.8177 3.7612 0.0 0
M  V30 22 C 6.5147 1.5045 0.0 0
M  V30 23 O 9.024 -3.2588 0.0 0
M  V30 24 C 6.5147 -3.009 0.0 0 CFG=1
M  V30 25 C 7.8177 -6.7703 0.0 0
M  V30 26 C 9.1206 -9.0271 0.0 0
M  V30 27 C 6.5147 4.5135 0.0 0 CFG=1
M  V30 28 C 5.2118 2.2567 0.0 0 CFG=1
M  V30 29 C 10.3278 -2.4407 0.0 0 CFG=1
M  V30 30 O 5.7625 -1.7061 0.0 0
M  V30 31 C 6.5147 -4.5135 0.0 0
M  V30 32 C 5.0102 -3.009 0.0 0
M  V30 33 O 6.5147 -7.5225 0.0 0
M  V30 34 C 7.8177 -5.2658 0.0 0 CFG=2
M  V30 35 C 5.2118 3.7612 0.0 0 CFG=2
M  V30 36 C 6.5147 6.018 0.0 0
M  V30 37 O 3.9088 1.5045 0.0 0
M  V30 38 C 3.9088 3.009 0.0 0
M  V30 39 O 10.1315 -0.9191 0.0 0
M  V30 40 C 11.7871 -2.8088 0.0 0 CFG=1
M  V30 41 C 9.1206 -4.5135 0.0 0
M  V30 42 O 3.9088 4.5135 0.0 0
M  V30 43 C 2.6059 2.2567 0.0 0
M  V30 44 C 11.6632 0.2021 0.0 0 CFG=2
M  V30 45 O 11.884 -4.2648 0.0 0
M  V30 46 C 13.0295 -2.2567 0.0 0 CFG=1
M  V30 47 C 13.0295 -0.7522 0.0 0
M  V30 48 C 11.7265 1.5045 0.0 0
M  V30 49 C 13.1788 -5.1234 0.0 0
M  V30 50 N 14.3324 -3.009 0.0 0
M  V30 51 O 13.3247 -6.8016 0.0 0
M  V30 52 C 14.3324 -4.7016 0.0 0
M  V30 53 C 15.6354 -2.2567 0.0 0
M  V30 54 C 14.3324 -4.1374 0.0 0
M  V30 55 C 15.6354 -5.2658 0.0 0
M  V30 56 C 15.6354 -6.7703 0.0 0
M  V30 57 O 16.9383 -7.5225 0.0 0
M  V30 58 O 14.3324 -7.5225 0.0 0
M  V30 59 C 14.3324 -9.0271 0.0 0
M  V30 60 C 13.0295 -9.7793 0.0 0
M  V30 END ATOM
M  V30 BEGIN BOND
M  V30 1 2 1 2
M  V30 2 1 2 3
M  V30 3 1 4 2
M  V30 4 1 5 3
M  V30 5 1 6 4
M  V30 6 1 4 7 CFG=3
M  V30 7 1 8 5
M  V30 8 1 5 9 CFG=1
M  V30 9 1 6 10 CFG=1
M  V30 10 1 11 6
M  V30 11 1 8 12 CFG=1
M  V30 12 1 13 8
M  V30 13 1 8 14
M  V30 14 1 9 15
M  V30 15 1 16 10 CFG=3
M  V30 16 1 17 11
M  V30 17 1 11 18 CFG=3
M  V30 18 1 13 19 CFG=1
M  V30 19 1 20 13
M  V30 20 1 16 21
M  V30 21 1 16 22
M  V30 22 1 17 23 CFG=3
M  V30 23 1 24 17
M  V30 24 1 20 25
M  V30 25 1 20 26 CFG=3
M  V30 26 1 27 21
M  V30 27 1 28 22
M  V30 28 1 29 23 CFG=1
M  V30 29 1 24 30 CFG=3
M  V30 30 1 24 31
M  V30 31 1 24 32
M  V30 32 2 25 33
M  V30 33 1 34 25
M  V30 34 1 35 27
M  V30 35 1 27 36 CFG=1
M  V30 36 1 28 37
M  V30 37 1 28 38 CFG=1
M  V30 38 1 29 39
M  V30 39 1 40 29
M  V30 40 1 34 41 CFG=3
M  V30 41 1 35 42 CFG=3
M  V30 42 1 37 43
M  V30 43 1 44 39
M  V30 44 1 40 45 CFG=3
M  V30 45 1 46 40
M  V30 46 1 44 47
M  V30 47 1 44 48 CFG=1
M  V30 48 1 45 49
M  V30 49 1 46 50 CFG=1
M  V30 50 2 49 51
M  V30 51 1 49 52
M  V30 52 1 50 53
M  V30 53 1 50 54
M  V30 54 1 52 55
M  V30 55 1 55 56
M  V30 56 2 56 57
M  V30 57 1 56 58
M  V30 58 1 58 59
M  V30 59 1 59 60
M  V30 60 1 28 35
M  V30 61 1 31 34
M  V30 62 1 46 47
M  V30 END BOND
M  V30 BEGIN COLLECTION
M  V30 MDLV30/STERAC1 ATOMS=(18 4 5 6 8 11 13 16 17 20 24 27 28 29 34 35 40 44 46)
M  V30 END COLLECTION
M  V30 END CTAB
M  END
>  <Molecule Name>


>  <status>
-

>  <cas>
8000-15-5

>  <name>
ERYTHROMYCIN ETHYLSUCCINATE

>  <ID>
966

>  <Smiles>
CC[C@@H]([C@@](C)([C@H]([C@H](C)C([C@@H](C)C[C@@](C)([C@H]([C@H](C)[C@H]([C@@H]1C)O[C@H](C[C@]2(C)OC)O[C@H](C)[C@H]2O)O[C@H]([C@H]2OC(CCC(OCC)=O)=O)O[C@@H](C)C[C@H]2N(C)C)O)=O)O)O)OC1=O

$$$$

Actelion Java MolfileCreator 2.0

  0  0  0  0  0  0              0 V3000
M  V30 BEGIN CTAB
M  V30 COUNTS 30 33 0 0 0
M  V30 BEGIN ATOM
M  V30 1 Cl 8.1386 -1.5405 0.0 0
M  V30 2 C 7.0214 -2.5464 0.0 0
M  V30 3 C 5.5916 -2.0819 0.0 0
M  V30 4 C 7.3339 -4.0169 0.0 0
M  V30 5 C 4.4744 -3.0878 0.0 0
M  V30 6 C 5.2791 -0.6114 0.0 0
M  V30 7 C 6.2168 -5.0228 0.0 0
M  V30 8 Cl 3.1127 -2.68 0.0 0
M  V30 9 C 4.787 -4.5583 0.0 0
M  V30 10 N 6.285 0.5057 0.0 0
M  V30 11 C 3.9057 0.0 0.0 0
M  V30 12 O 5.5333 1.8076 0.0 0
M  V30 13 C 4.0629 1.495 0.0 0
M  V30 14 C 2.6038 -0.7516 0.0 0
M  V30 15 C 2.9457 2.501 0.0 0
M  V30 16 O 2.5698 -2.2265 0.0 0
M  V30 17 N 1.3019 0.0 0.0 0
M  V30 18 C 0.0 -0.7516 0.0 0 CFG=1
M  V30 19 C -1.4521 -0.3625 0.0 0
M  V30 20 C -0.389 -2.2037 0.0 0 CFG=1
M  V30 21 O -2.2037 0.9393 0.0 0
M  V30 22 N -1.8411 -1.8146 0.0 0
M  V30 23 S -0.3104 -3.705 0.0 0
M  V30 24 C -2.6599 -3.0754 0.0 0 CFG=1
M  V30 25 C -1.7138 -4.2437 0.0 0
M  V30 26 C -4.1612 -3.1541 0.0 0
M  V30 27 C -2.7768 -5.3067 0.0 0
M  V30 28 C -1.3247 -5.6958 0.0 0
M  V30 29 O -4.98 -1.8933 0.0 0
M  V30 30 O -4.8437 -4.4936 0.0 0 CHG=-1
M  V30 END ATOM
M  V30 BEGIN BOND
M  V30 1 1 1 2
M  V30 2 2 2 3
M  V30 3 1 2 4
M  V30 4 1 3 5
M  V30 5 1 3 6
M  V30 6 2 4 7
M  V30 7 1 5 8
M  V30 8 2 5 9
M  V30 9 2 6 10
M  V30 10 1 6 11
M  V30 11 1 10 12
M  V30 12 2 11 13
M  V30 13 1 11 14
M  V30 14 1 13 15
M  V30 15 2 14 16
M  V30 16 1 14 17
M  V30 17 1 18 17 CFG=3
M  V30 18 1 18 19
M  V30 19 1 20 18
M  V30 20 2 19 21
M  V30 21 1 19 22
M  V30 22 1 20 23 CFG=3
M  V30 23 1 24 22
M  V30 24 1 23 25
M  V30 25 1 24 26 CFG=1
M  V30 26 1 25 27
M  V30 27 1 25 28
M  V30 28 2 26 29
M  V30 29 1 26 30
M  V30 30 1 7 9
M  V30 31 1 12 13
M  V30 32 1 20 22
M  V30 33 1 24 25
M  V30 END BOND
M  V30 BEGIN COLLECTION
M  V30 MDLV30/STERAC1 ATOMS=(3 18 20 24)
M  V30 END COLLECTION
M  V30 END CTAB
M  END
>  <Molecule Name>


>  <status>
-

>  <cas>
3116-76-5

>  <name>
DICLOXACILLIN

>  <ID>
967

>  <Smiles>
CC(C)([C@H]1C([O-])=O)S[C@@H]([C@H]2NC(c3c(C)onc3-c(c(Cl)ccc3)c3Cl)=O)N1C2=O

$$$$

Actelion Java MolfileCreator 2.0

  0  0  0  0  0  0              0 V3000
M  V30 BEGIN CTAB
M  V30 COUNTS 42 45 0 0 0
M  V30 BEGIN ATOM
M  V30 1 O 2.598 -2.25 0.0 0
M  V30 2 C 2.598 -0.75 0.0 0 CFG=2
M  V30 3 C 3.8971 -3.0 0.0 0 CFG=1
M  V30 4 O 1.299 0.0 0.0 0
M  V30 5 C 3.8971 0.0 0.0 0 CFG=2
M  V30 6 C 5.1961 -2.25 0.0 0 CFG=2
M  V30 7 C 3.8971 -4.5 0.0 0
M  V30 8 C 0.0 -0.75 0.0 0 CFG=1
M  V30 9 N 3.8971 1.4999 0.0 0
M  V30 10 C 5.1961 -0.75 0.0 0 CFG=2
M  V30 11 O 6.4951 -3.0 0.0 0
M  V30 12 N 2.598 -5.25 0.0 0
M  V30 13 C -1.299 0.0 0.0 0 CFG=2
M  V30 14 C 0.0 -2.25 0.0 0 CFG=1
M  V30 15 O 6.4951 0.0 0.0 0
M  V30 16 O -1.299 1.5 0.0 0
M  V30 17 C -2.598 -0.7499 0.0 0 CFG=1
M  V30 18 N 1.299 -3.0 0.0 0
M  V30 19 C -1.299 -2.9999 0.0 0
M  V30 20 C -2.598 2.25 0.0 0 CFG=2
M  V30 21 O -3.8971 0.0 0.0 0
M  V30 22 C -2.598 -2.2499 0.0 0 CFG=1
M  V30 23 O -3.9683 1.6398 0.0 0
M  V30 24 C -2.7548 3.7417 0.0 0 CFG=2
M  V30 25 N -3.8971 -2.9999 0.0 0
M  V30 26 C -4.972 2.7546 0.0 0 CFG=1
M  V30 27 O -1.6401 4.7454 0.0 0
M  V30 28 C -4.222 4.0536 0.0 0 CFG=1
M  V30 29 C -6.4638 2.5978 0.0 0
M  V30 30 O -4.8321 5.4239 0.0 0
M  V30 31 O -7.3455 3.8113 0.0 0
M  V30 32 C -3.9505 6.6374 0.0 0 CFG=1
M  V30 33 O -2.4587 6.4807 0.0 0
M  V30 34 C -4.5606 8.0078 0.0 0 CFG=2
M  V30 35 C -1.577 7.6942 0.0 0 CFG=2
M  V30 36 N -6.0524 8.1646 0.0 0
M  V30 37 C -3.6789 9.2213 0.0 0 CFG=2
M  V30 38 C -2.1871 9.0645 0.0 0 CFG=2
M  V30 39 C -0.0852 7.5374 0.0 0
M  V30 40 O -4.289 10.5916 0.0 0
M  V30 41 O -1.3054 10.278 0.0 0
M  V30 42 N 0.7964 8.7509 0.0 0
M  V30 END ATOM
M  V30 BEGIN BOND
M  V30 1 1 2 1
M  V30 2 1 3 1
M  V30 3 1 2 4 CFG=3
M  V30 4 1 5 2
M  V30 5 1 6 3
M  V30 6 1 3 7 CFG=1
M  V30 7 1 8 4 CFG=3
M  V30 8 1 5 9 CFG=3
M  V30 9 1 10 5
M  V30 10 1 6 11 CFG=3
M  V30 11 1 7 12
M  V30 12 1 13 8
M  V30 13 1 14 8
M  V30 14 1 10 15 CFG=1
M  V30 15 1 13 16 CFG=1
M  V30 16 1 17 13
M  V30 17 1 14 18 CFG=1
M  V30 18 1 14 19
M  V30 19 1 20 16 CFG=3
M  V30 20 1 17 21 CFG=3
M  V30 21 1 22 17
M  V30 22 1 20 23
M  V30 23 1 24 20
M  V30 24 1 22 25 CFG=1
M  V30 25 1 26 23
M  V30 26 1 24 27 CFG=1
M  V30 27 1 28 24
M  V30 28 1 26 29 CFG=3
M  V30 29 1 28 30 CFG=1
M  V30 30 1 29 31
M  V30 31 1 32 30 CFG=3
M  V30 32 1 32 33
M  V30 33 1 34 32
M  V30 34 1 35 33
M  V30 35 1 34 36 CFG=3
M  V30 36 1 37 34
M  V30 37 1 38 35
M  V30 38 1 35 39 CFG=3
M  V30 39 1 37 40 CFG=1
M  V30 40 1 38 41 CFG=3
M  V30 41 1 39 42
M  V30 42 1 6 10
M  V30 43 1 19 22
M  V30 44 1 26 28
M  V30 45 1 37 38
M  V30 END BOND
M  V30 BEGIN COLLECTION
M  V30 MDLV30/STERAC1 ATOMS=(19 2 3 5 6 8 10 13 14 17 20 22 24 26 28 32 34 35 37 38)
M  V30 END COLLECTION
M  V30 END CTAB
M  END
>  <Molecule Name>


>  <status>
-

>  <cas>
1404-04-2

>  <name>
NEOMYCIN

>  <ID>
968

>  <Smiles>
NC[C@@H]([C@H]([C@@H]([C@H]1N)O)O)O[C@@H]1O[C@H]([C@@H](CO)O[C@H]1O[C@H]([C@H]([C@@H](C[C@@H]2N)N)O)[C@@H]2O[C@H]([C@@H]([C@H]2O)N)O[C@H](CN)[C@H]2O)[C@H]1O

$$$$

Actelion Java MolfileCreator 2.0

  0  0  0  0  0  0              0 V3000
M  V30 BEGIN CTAB
M  V30 COUNTS 33 35 0 0 0
M  V30 BEGIN ATOM
M  V30 1 O 6.4951 1.5 0.0 0
M  V30 2 C 6.4951 0.0 0.0 0 CFG=2
M  V30 3 C 5.1961 2.25 0.0 0 CFG=2
M  V30 4 O 7.7942 -0.75 0.0 0
M  V30 5 C 5.1961 -0.75 0.0 0 CFG=2
M  V30 6 C 5.1961 3.75 0.0 0 CFG=1
M  V30 7 C 3.8971 1.5 0.0 0
M  V30 8 C 9.0932 0.0 0.0 0 CFG=1
M  V30 9 N 5.1961 -2.25 0.0 0
M  V30 10 C 3.8971 0.0 0.0 0
M  V30 11 N 3.8971 4.5 0.0 0
M  V30 12 C 6.4951 4.5 0.0 0
M  V30 13 C 10.3923 -0.75 0.0 0 CFG=2
M  V30 14 C 9.0932 1.5 0.0 0 CFG=1
M  V30 15 C 3.8971 6.0 0.0 0
M  V30 16 O 10.3923 -2.25 0.0 0
M  V30 17 C 11.6913 0.0 0.0 0 CFG=1
M  V30 18 N 7.7942 2.25 0.0 0
M  V30 19 C 10.3923 2.25 0.0 0
M  V30 20 O 12.9903 -0.75 0.0 0
M  V30 21 C 11.6913 1.5 0.0 0 CFG=1
M  V30 22 C 14.2894 0.0 0.0 0 CFG=1
M  V30 23 N 12.9903 2.25 0.0 0
M  V30 24 O 14.2894 1.5 0.0 0
M  V30 25 C 15.5884 -0.75 0.0 0 CFG=2
M  V30 26 C 15.5884 2.25 0.0 0
M  V30 27 O 15.5884 -2.25 0.0 0
M  V30 28 C 16.8875 0.0 0.0 0 CFG=2
M  V30 29 C 16.8875 1.5 0.0 0 CFG=1
M  V30 30 N 18.1865 -0.75 0.0 0
M  V30 31 O 17.6374 2.799 0.0 0
M  V30 32 C 18.3874 1.4999 0.0 0
M  V30 33 C 18.1865 -2.25 0.0 0
M  V30 END ATOM
M  V30 BEGIN BOND
M  V30 1 1 2 1
M  V30 2 1 3 1 CFG=1
M  V30 3 1 2 4 CFG=3
M  V30 4 1 5 2
M  V30 5 1 6 3
M  V30 6 1 3 7
M  V30 7 1 8 4 CFG=3
M  V30 8 1 5 9 CFG=3
M  V30 9 1 5 10
M  V30 10 1 6 11 CFG=1
M  V30 11 1 6 12
M  V30 12 1 13 8
M  V30 13 1 14 8
M  V30 14 1 11 15
M  V30 15 1 13 16 CFG=1
M  V30 16 1 17 13
M  V30 17 1 14 18 CFG=1
M  V30 18 1 14 19
M  V30 19 1 17 20 CFG=3
M  V30 20 1 21 17
M  V30 21 1 22 20 CFG=1
M  V30 22 1 21 23 CFG=1
M  V30 23 1 22 24
M  V30 24 1 25 22
M  V30 25 1 24 26
M  V30 26 1 25 27 CFG=1
M  V30 27 1 28 25
M  V30 28 1 29 26
M  V30 29 1 28 30 CFG=3
M  V30 30 1 29 31 CFG=3
M  V30 31 1 29 32
M  V30 32 1 30 33
M  V30 33 1 7 10
M  V30 34 1 19 21
M  V30 35 1 28 29
M  V30 END BOND
M  V30 BEGIN COLLECTION
M  V30 MDLV30/STERAC1 ATOMS=(13 2 3 5 6 8 13 14 17 21 22 25 28 29)
M  V30 END COLLECTION
M  V30 END CTAB
M  END
>  <Molecule Name>


>  <status>
-

>  <cas>
1403-66-3

>  <name>
GENTAMICIN

>  <ID>
969

>  <Smiles>
C[C@@H]([C@H](CC[C@H]1N)O[C@@H]1O[C@H]([C@H](C[C@H]([C@@H]1O[C@H]([C@@H]([C@H]2NC)O)OC[C@]2(C)O)N)N)[C@@H]1O)NC

$$$$

Actelion Java MolfileCreator 2.0

  0  0  0  0  0  0              0 V3000
M  V30 BEGIN CTAB
M  V30 COUNTS 24 26 0 0 0
M  V30 BEGIN ATOM
M  V30 1 Cl 1.3025 -3.0081 0.0 0
M  V30 2 C 2.6051 -2.256 0.0 0
M  V30 3 C 2.6051 -0.752 0.0 0
M  V30 4 C 3.9076 -3.0081 0.0 0
M  V30 5 O 1.3025 0.0 0.0 0
M  V30 6 C 3.9076 0.0 0.0 0
M  V30 7 O 4.2203 -4.4793 0.0 0
M  V30 8 C 5.2102 -2.256 0.0 0
M  V30 9 C 0.0 -0.752 0.0 0
M  V30 10 C 5.2102 -0.752 0.0 0
M  V30 11 C 5.7161 -4.6365 0.0 0 CFG=1
M  V30 12 C 6.3279 -3.2625 0.0 0
M  V30 13 O 6.5127 0.0 0.0 0
M  V30 14 C 4.9641 -5.939 0.0 0
M  V30 15 C 7.2202 -4.6365 0.0 0 CFG=2
M  V30 16 O 7.7651 -2.8744 0.0 0
M  V30 17 C 6.5127 1.504 0.0 0
M  V30 18 O 3.4601 -5.939 0.0 0
M  V30 19 C 5.7161 -7.2416 0.0 0
M  V30 20 C 7.9722 -5.939 0.0 0
M  V30 21 C 8.0402 -3.4846 0.0 0
M  V30 22 C 2.708 -7.2416 0.0 0
M  V30 23 C 7.2202 -7.2416 0.0 0
M  V30 24 O 7.9722 -8.5441 0.0 0
M  V30 END ATOM
M  V30 BEGIN BOND
M  V30 1 1 1 2
M  V30 2 2 2 3
M  V30 3 1 2 4
M  V30 4 1 3 5
M  V30 5 1 3 6
M  V30 6 1 4 7
M  V30 7 2 4 8
M  V30 8 1 5 9
M  V30 9 2 6 10
M  V30 10 1 11 7 CFG=3
M  V30 11 1 8 12
M  V30 12 1 10 13
M  V30 13 1 11 14
M  V30 14 1 15 11
M  V30 15 2 12 16
M  V30 16 1 13 17
M  V30 17 1 14 18
M  V30 18 2 14 19
M  V30 19 1 15 20
M  V30 20 1 15 21 CFG=1
M  V30 21 1 18 22
M  V30 22 1 19 23
M  V30 23 2 23 24
M  V30 24 1 8 10
M  V30 25 1 11 12
M  V30 26 1 20 23
M  V30 END BOND
M  V30 BEGIN COLLECTION
M  V30 MDLV30/STERAC1 ATOMS=(2 11 15)
M  V30 END COLLECTION
M  V30 END CTAB
M  END
>  <Molecule Name>


>  <status>
-

>  <cas>
126-07-8

>  <name>
GRISEOFULVIN

>  <ID>
970

>  <Smiles>
C[C@@H](CC(C=C1OC)=O)[C@@]1(C1=O)Oc2c1c(OC)cc(OC)c2Cl

$$$$

Actelion Java MolfileCreator 2.0

  0  0  0  0  0  0              0 V3000
M  V30 BEGIN CTAB
M  V30 COUNTS 27 30 0 0 0
M  V30 BEGIN ATOM
M  V30 1 S 4.9721 -1.2546 0.0 0
M  V30 2 C 3.9684 -0.1398 0.0 0
M  V30 3 C 4.2221 -2.5536 0.0 0 CFG=1
M  V30 4 C 2.598 -0.75 0.0 0 CFG=1
M  V30 5 C 4.972 0.9747 0.0 0
M  V30 6 C 3.5048 1.2866 0.0 0
M  V30 7 N 2.7548 -2.2417 0.0 0
M  V30 8 C 3.9102 -4.0208 0.0 0 CFG=1
M  V30 9 C 1.299 0.0 0.0 0
M  V30 10 C 2.443 -3.709 0.0 0
M  V30 11 N 4.7271 -5.2788 0.0 0
M  V30 12 O 1.299 1.5 0.0 0
M  V30 13 O 0.0 -0.75 0.0 0 CHG=-1
M  V30 14 O 1.1849 -4.5259 0.0 0
M  V30 15 C 4.1896 -6.6792 0.0 0
M  V30 16 C 6.2251 -5.3573 0.0 0
M  V30 17 O 2.7407 -7.0674 0.0 0
M  V30 18 C 5.3553 -7.6232 0.0 0 CFG=2
M  V30 19 N 6.6133 -6.8062 0.0 0
M  V30 20 C 7.6254 -4.8198 0.0 0
M  V30 21 C 6.4597 -3.8758 0.0 0
M  V30 22 C 5.2768 -9.1211 0.0 0
M  V30 23 C 3.9403 -9.8021 0.0 0
M  V30 24 C 6.5348 -9.9381 0.0 0
M  V30 25 C 3.8618 -11.3001 0.0 0
M  V30 26 C 6.4563 -11.4361 0.0 0
M  V30 27 C 5.1198 -12.117 0.0 0
M  V30 END ATOM
M  V30 BEGIN BOND
M  V30 1 1 1 2
M  V30 2 1 3 1 CFG=3
M  V30 3 1 4 2
M  V30 4 1 2 5
M  V30 5 1 2 6
M  V30 6 1 3 7
M  V30 7 1 8 3
M  V30 8 1 4 9 CFG=1
M  V30 9 1 7 10
M  V30 10 1 8 11 CFG=3
M  V30 11 2 9 12
M  V30 12 1 9 13
M  V30 13 2 10 14
M  V30 14 1 11 15
M  V30 15 1 11 16
M  V30 16 2 15 17
M  V30 17 1 18 15
M  V30 18 1 16 19
M  V30 19 1 16 20
M  V30 20 1 16 21
M  V30 21 1 18 22 CFG=3
M  V30 22 2 22 23
M  V30 23 1 22 24
M  V30 24 1 23 25
M  V30 25 2 24 26
M  V30 26 2 25 27
M  V30 27 1 4 7
M  V30 28 1 8 10
M  V30 29 1 18 19
M  V30 30 1 26 27
M  V30 END BOND
M  V30 BEGIN COLLECTION
M  V30 MDLV30/STERAC1 ATOMS=(4 3 4 8 18)
M  V30 END COLLECTION
M  V30 END CTAB
M  END
>  <Molecule Name>


>  <status>
DISCONTINUED

>  <cas>
3511-16-8

>  <name>
HETACILLIN

>  <ID>
971

>  <Smiles>
CC(C)([C@@H]1C([O-])=O)S[C@H]([C@@H]2N(C(C)(C)N[C@@H]3c4ccccc4)C3=O)N1C2=O

$$$$

Actelion Java MolfileCreator 2.0

  0  0  0  0  0  0              0 V3000
M  V30 BEGIN CTAB
M  V30 COUNTS 32 34 0 0 0
M  V30 BEGIN ATOM
M  V30 1 S 12.7663 -1.2546 0.0 0
M  V30 2 C 11.7626 -0.1398 0.0 0
M  V30 3 C 12.0163 -2.5536 0.0 0 CFG=2
M  V30 4 C 10.3923 -0.75 0.0 0 CFG=2
M  V30 5 C 12.7663 0.9747 0.0 0
M  V30 6 C 11.2991 1.2866 0.0 0
M  V30 7 N 10.5491 -2.2417 0.0 0
M  V30 8 C 11.7044 -4.0208 0.0 0 CFG=2
M  V30 9 C 9.0932 0.0 0.0 0
M  V30 10 C 10.2372 -3.709 0.0 0
M  V30 11 N 12.5214 -5.2788 0.0 0
M  V30 12 O 9.0932 1.5 0.0 0
M  V30 13 O 7.7942 -0.75 0.0 0
M  V30 14 O 8.9792 -4.5259 0.0 0
M  V30 15 C 14.0193 -5.2003 0.0 0
M  V30 16 C 6.4951 0.0 0.0 0 CFG=2
M  V30 17 O 14.7003 -3.8638 0.0 0
M  V30 18 C 14.8363 -6.4583 0.0 0 CFG=1
M  V30 19 O 5.1961 -0.75 0.0 0
M  V30 20 C 6.4951 1.5 0.0 0
M  V30 21 N 14.1553 -7.7948 0.0 0
M  V30 22 C 16.3342 -6.3798 0.0 0
M  V30 23 C 3.8971 0.0 0.0 0
M  V30 24 C 17.1512 -7.6378 0.0 0
M  V30 25 C 17.0152 -5.0433 0.0 0
M  V30 26 O 3.8971 1.5 0.0 0
M  V30 27 O 2.598 -0.75 0.0 0
M  V30 28 C 18.6491 -7.5593 0.0 0
M  V30 29 C 18.5132 -4.9648 0.0 0
M  V30 30 C 1.299 0.0 0.0 0
M  V30 31 C 19.3301 -6.2228 0.0 0
M  V30 32 C 0.0 -0.75 0.0 0
M  V30 END ATOM
M  V30 BEGIN BOND
M  V30 1 1 1 2
M  V30 2 1 3 1 CFG=1
M  V30 3 1 4 2
M  V30 4 1 2 5
M  V30 5 1 2 6
M  V30 6 1 3 7
M  V30 7 1 8 3
M  V30 8 1 4 9 CFG=3
M  V30 9 1 7 10
M  V30 10 1 8 11 CFG=1
M  V30 11 2 9 12
M  V30 12 1 9 13
M  V30 13 2 10 14
M  V30 14 1 11 15
M  V30 15 1 16 13 CFG=3
M  V30 16 2 15 17
M  V30 17 1 18 15
M  V30 18 1 16 19
M  V30 19 1 16 20
M  V30 20 1 18 21 CFG=3
M  V30 21 1 18 22
M  V30 22 1 19 23
M  V30 23 2 22 24
M  V30 24 1 22 25
M  V30 25 2 23 26
M  V30 26 1 23 27
M  V30 27 1 24 28
M  V30 28 2 25 29
M  V30 29 1 27 30
M  V30 30 2 28 31
M  V30 31 1 30 32
M  V30 32 1 4 7
M  V30 33 1 8 10
M  V30 34 1 29 31
M  V30 END BOND
M  V30 BEGIN COLLECTION
M  V30 MDLV30/STERAC1 ATOMS=(5 3 4 8 16 18)
M  V30 END COLLECTION
M  V30 END CTAB
M  END
>  <Molecule Name>


>  <status>
DISCONTINUED

>  <cas>
50972-17-3

>  <name>
BACAMPICILLIN

>  <ID>
972

>  <Smiles>
CCOC(O[C@H](C)OC([C@H](C(C)(C)S[C@H]1[C@H]2NC([C@H](c3ccccc3)N)=O)N1C2=O)=O)=O

$$$$

Actelion Java MolfileCreator 2.0

  0  0  0  0  0  0              0 V3000
M  V30 BEGIN CTAB
M  V30 COUNTS 24 26 0 0 0
M  V30 BEGIN ATOM
M  V30 1 S 5.5058 -3.6968 0.0 0
M  V30 2 C 6.9062 -4.2343 0.0 0
M  V30 3 C 5.5843 -2.1988 0.0 0 CFG=2
M  V30 4 C 7.8502 -3.0686 0.0 0 CFG=2
M  V30 5 C 6.518 -5.6832 0.0 0
M  V30 6 C 7.9669 -5.295 0.0 0
M  V30 7 N 7.0332 -1.8106 0.0 0
M  V30 8 C 5.1961 -0.75 0.0 0 CFG=2
M  V30 9 C 9.3481 -3.1471 0.0 0
M  V30 10 C 6.645 -0.3617 0.0 0
M  V30 11 N 3.8971 0.0 0.0 0
M  V30 12 O 10.0291 -4.4836 0.0 0
M  V30 13 O 10.1651 -1.8891 0.0 0 CHG=-1
M  V30 14 O 7.395 0.9372 0.0 0
M  V30 15 C 2.598 -0.75 0.0 0
M  V30 16 O 2.598 -2.25 0.0 0
M  V30 17 C 1.299 0.0 0.0 0 CFG=1
M  V30 18 N 1.299 1.5 0.0 0
M  V30 19 C 0.0 -0.75 0.0 0
M  V30 20 C -1.299 0.0 0.0 0
M  V30 21 C 0.0 -2.25 0.0 0
M  V30 22 C -2.598 -0.75 0.0 0
M  V30 23 C -1.299 -3.0 0.0 0
M  V30 24 C -2.598 -2.25 0.0 0
M  V30 END ATOM
M  V30 BEGIN BOND
M  V30 1 1 1 2
M  V30 2 1 3 1 CFG=1
M  V30 3 1 4 2
M  V30 4 1 2 5
M  V30 5 1 2 6
M  V30 6 1 3 7
M  V30 7 1 8 3
M  V30 8 1 4 9 CFG=3
M  V30 9 1 7 10
M  V30 10 1 8 11 CFG=1
M  V30 11 2 9 12
M  V30 12 1 9 13
M  V30 13 2 10 14
M  V30 14 1 11 15
M  V30 15 2 15 16
M  V30 16 1 17 15
M  V30 17 1 17 18 CFG=3
M  V30 18 1 17 19
M  V30 19 2 19 20
M  V30 20 1 19 21
M  V30 21 1 20 22
M  V30 22 2 21 23
M  V30 23 2 22 24
M  V30 24 1 4 7
M  V30 25 1 8 10
M  V30 26 1 23 24
M  V30 END BOND
M  V30 BEGIN COLLECTION
M  V30 MDLV30/STERAC1 ATOMS=(4 3 4 8 17)
M  V30 END COLLECTION
M  V30 END CTAB
M  END
>  <Molecule Name>


>  <status>
-

>  <cas>
69-53-4

>  <name>
AMPICILLIN

>  <ID>
973

>  <Smiles>
CC(C)([C@H]1C([O-])=O)S[C@@H]([C@H]2NC([C@H](c3ccccc3)N)=O)N1C2=O

$$$$

Actelion Java MolfileCreator 2.0

  0  0  0  0  0  0              0 V3000
M  V30 BEGIN CTAB
M  V30 COUNTS 20 20 0 0 0
M  V30 BEGIN ATOM
M  V30 1 Cl -1.732 -0.5 0.0 0
M  V30 2 C -0.866 0.0 0.0 0
M  V30 3 Cl -0.866 0.9999 0.0 0
M  V30 4 C 0.0 -0.5 0.0 0
M  V30 5 O 0.0 -1.5 0.0 0
M  V30 6 N 0.866 0.0 0.0 0
M  V30 7 C 1.732 -0.5 0.0 0 CFG=1
M  V30 8 C 1.732 -1.5 0.0 0 CFG=2
M  V30 9 C 2.598 0.0 0.0 0
M  V30 10 O 0.866 -2.0 0.0 0
M  V30 11 C 2.598 -1.9999 0.0 0
M  V30 12 O 3.4641 -0.4999 0.0 0
M  V30 13 C 2.598 -3.0 0.0 0
M  V30 14 C 3.4641 -1.5 0.0 0
M  V30 15 C 3.4641 -3.5 0.0 0
M  V30 16 C 4.3301 -2.0 0.0 0
M  V30 17 C 4.3301 -3.0 0.0 0
M  V30 18 N 5.1961 -3.5 0.0 0 CHG=1
M  V30 19 O 5.1961 -4.5 0.0 0
M  V30 20 O 6.0621 -3.0 0.0 0 CHG=-1
M  V30 END ATOM
M  V30 BEGIN BOND
M  V30 1 1 1 2
M  V30 2 1 2 3
M  V30 3 1 2 4
M  V30 4 2 4 5
M  V30 5 1 4 6
M  V30 6 1 7 6 CFG=3
M  V30 7 1 8 7
M  V30 8 1 7 9
M  V30 9 1 8 10 CFG=1
M  V30 10 1 8 11
M  V30 11 1 9 12
M  V30 12 2 11 13
M  V30 13 1 11 14
M  V30 14 1 13 15
M  V30 15 2 14 16
M  V30 16 2 15 17
M  V30 17 1 17 18
M  V30 18 2 18 19
M  V30 19 1 18 20
M  V30 20 1 16 17
M  V30 END BOND
M  V30 BEGIN COLLECTION
M  V30 MDLV30/STERAC1 ATOMS=(2 7 8)
M  V30 END COLLECTION
M  V30 END CTAB
M  END
>  <Molecule Name>


>  <status>
-

>  <cas>
56-75-7

>  <name>
CHLORAMPHENICOL

>  <ID>
974

>  <Smiles>
[O-][N+](c1ccc([C@H]([C@@H](CO)NC(C(Cl)Cl)=O)O)cc1)=O

$$$$

Actelion Java MolfileCreator 2.0

  0  0  0  0  0  0              0 V3000
M  V30 BEGIN CTAB
M  V30 COUNTS 37 37 0 0 0
M  V30 BEGIN ATOM
M  V30 1 Cl 19.0525 -0.5 0.0 0
M  V30 2 C 18.1865 0.0 0.0 0
M  V30 3 Cl 18.1865 0.9999 0.0 0
M  V30 4 C 17.3205 -0.5 0.0 0
M  V30 5 O 17.3205 -1.4999 0.0 0
M  V30 6 N 16.4544 0.0 0.0 0
M  V30 7 C 15.5884 -0.5 0.0 0 CFG=1
M  V30 8 C 15.5884 -1.4999 0.0 0 CFG=2
M  V30 9 C 14.7224 0.0 0.0 0
M  V30 10 O 16.4544 -1.9999 0.0 0
M  V30 11 C 14.7224 -2.0 0.0 0
M  V30 12 O 13.8564 -0.5 0.0 0
M  V30 13 C 14.7224 -3.0 0.0 0
M  V30 14 C 13.8564 -1.5 0.0 0
M  V30 15 C 12.9903 0.0 0.0 0
M  V30 16 C 13.8564 -3.5 0.0 0
M  V30 17 C 12.9903 -2.0 0.0 0
M  V30 18 O 12.9903 1.0 0.0 0
M  V30 19 C 12.1243 -0.5 0.0 0
M  V30 20 C 12.9903 -3.0 0.0 0
M  V30 21 C 11.2583 0.0 0.0 0
M  V30 22 N 12.1243 -3.5 0.0 0 CHG=1
M  V30 23 C 10.3923 -0.5 0.0 0
M  V30 24 O 12.1243 -4.5 0.0 0
M  V30 25 O 11.2583 -3.0 0.0 0 CHG=-1
M  V30 26 C 9.5262 0.0 0.0 0
M  V30 27 C 8.6602 -0.5 0.0 0
M  V30 28 C 7.7942 0.0 0.0 0
M  V30 29 C 6.9282 -0.5 0.0 0
M  V30 30 C 6.0621 0.0 0.0 0
M  V30 31 C 5.1961 -0.5 0.0 0
M  V30 32 C 4.3301 0.0 0.0 0
M  V30 33 C 3.4641 -0.5 0.0 0
M  V30 34 C 2.598 0.0 0.0 0
M  V30 35 C 1.732 -0.5 0.0 0
M  V30 36 C 0.866 0.0 0.0 0
M  V30 37 C 0.0 -0.5 0.0 0
M  V30 END ATOM
M  V30 BEGIN BOND
M  V30 1 1 1 2
M  V30 2 1 2 3
M  V30 3 1 2 4
M  V30 4 2 4 5
M  V30 5 1 4 6
M  V30 6 1 7 6 CFG=1
M  V30 7 1 8 7
M  V30 8 1 7 9
M  V30 9 1 8 10 CFG=3
M  V30 10 1 8 11
M  V30 11 1 9 12
M  V30 12 2 11 13
M  V30 13 1 11 14
M  V30 14 1 12 15
M  V30 15 1 13 16
M  V30 16 2 14 17
M  V30 17 2 15 18
M  V30 18 1 15 19
M  V30 19 2 16 20
M  V30 20 1 19 21
M  V30 21 1 20 22
M  V30 22 1 21 23
M  V30 23 2 22 24
M  V30 24 1 22 25
M  V30 25 1 23 26
M  V30 26 1 26 27
M  V30 27 1 27 28
M  V30 28 1 28 29
M  V30 29 1 29 30
M  V30 30 1 30 31
M  V30 31 1 31 32
M  V30 32 1 32 33
M  V30 33 1 33 34
M  V30 34 1 34 35
M  V30 35 1 35 36
M  V30 36 1 36 37
M  V30 37 1 17 20
M  V30 END BOND
M  V30 BEGIN COLLECTION
M  V30 MDLV30/STERAC1 ATOMS=(2 7 8)
M  V30 END COLLECTION
M  V30 END CTAB
M  END
>  <Molecule Name>


>  <status>
DISCONTINUED

>  <cas>
530-43-8

>  <name>
CHLORAMPHENICOL PALMITATE

>  <ID>
975

>  <Smiles>
CCCCCCCCCCCCCCCC(OC[C@H]([C@@H](c(cc1)ccc1[N+]([O-])=O)O)NC(C(Cl)Cl)=O)=O

$$$$

Actelion Java MolfileCreator 2.0

  0  0  0  0  0  0              0 V3000
M  V30 BEGIN CTAB
M  V30 COUNTS 47 48 0 0 0
M  V30 BEGIN ATOM
M  V30 1 O 11.7138 6.0115 0.0 0
M  V30 2 C 11.7138 4.5086 0.0 0
M  V30 3 N 13.0154 3.7572 0.0 0
M  V30 4 C 10.4123 3.7572 0.0 0
M  V30 5 C 14.3169 4.5086 0.0 0 CFG=2
M  V30 6 N 10.4123 2.2543 0.0 0
M  V30 7 C 9.1107 4.5086 0.0 0
M  V30 8 C 15.6184 3.7572 0.0 0
M  V30 9 C 14.3169 6.0115 0.0 0 CFG=1
M  V30 10 C 11.7138 1.5028 0.0 0
M  V30 11 N 9.1107 6.0115 0.0 0
M  V30 12 O 15.2427 2.2543 0.0 0
M  V30 13 N 16.92 4.5086 0.0 0
M  V30 14 N 15.6184 6.763 0.0 0
M  V30 15 C 13.0154 6.763 0.0 0
M  V30 16 O 13.0154 2.2543 0.0 0
M  V30 17 C 11.7138 0.0 0.0 0 CFG=1
M  V30 18 C 7.8092 6.763 0.0 0
M  V30 19 C 18.2215 3.7572 0.0 0
M  V30 20 C 15.6184 8.2658 0.0 0
M  V30 21 C 13.0154 8.2658 0.0 0
M  V30 22 N 13.0154 -0.7514 0.0 0
M  V30 23 C 10.4123 -0.7514 0.0 0
M  V30 24 O 6.5077 6.0115 0.0 0
M  V30 25 N 7.8092 8.2658 0.0 0
M  V30 26 C 18.2215 2.2543 0.0 0 CFG=2
M  V30 27 N 16.92 9.0173 0.0 0
M  V30 28 N 14.3169 9.0173 0.0 0
M  V30 29 C 14.3169 0.0 0.0 0
M  V30 30 N 9.1107 0.0 0.0 0
M  V30 31 N 19.5231 1.5028 0.0 0
M  V30 32 C 16.92 1.5028 0.0 0
M  V30 33 O 14.3169 1.5028 0.0 0
M  V30 34 C 15.6184 -0.7514 0.0 0 CFG=1
M  V30 35 C 7.8092 -0.7514 0.0 0
M  V30 36 O 15.8061 2.2074 0.0 0
M  V30 37 N 16.92 0.0 0.0 0
M  V30 38 C 15.6184 -2.2543 0.0 0
M  V30 39 O 7.8092 -2.2543 0.0 0
M  V30 40 C 6.5077 0.0 0.0 0
M  V30 41 O 16.92 -3.0057 0.0 0
M  V30 42 C 5.2061 -0.7514 0.0 0 CFG=1
M  V30 43 N 5.2061 -2.2543 0.0 0
M  V30 44 C 3.9046 0.0 0.0 0
M  V30 45 C 2.603 -0.7514 0.0 0
M  V30 46 C 1.3015 0.0 0.0 0
M  V30 47 N 0.0 -0.7514 0.0 0
M  V30 END ATOM
M  V30 BEGIN BOND
M  V30 1 2 1 2
M  V30 2 1 2 3
M  V30 3 1 2 4
M  V30 4 1 5 3 CFG=1
M  V30 5 1 4 6
M  V30 6 2 4 7
M  V30 7 1 5 8
M  V30 8 1 9 5
M  V30 9 1 6 10
M  V30 10 1 7 11
M  V30 11 2 8 12
M  V30 12 1 8 13
M  V30 13 1 9 14 CFG=3
M  V30 14 1 9 15
M  V30 15 2 10 16
M  V30 16 1 17 10
M  V30 17 1 11 18
M  V30 18 1 13 19
M  V30 19 1 14 20
M  V30 20 1 15 21
M  V30 21 1 17 22
M  V30 22 1 17 23 CFG=1
M  V30 23 2 18 24
M  V30 24 1 18 25
M  V30 25 1 26 19
M  V30 26 2 20 27
M  V30 27 1 20 28
M  V30 28 1 22 29
M  V30 29 1 23 30
M  V30 30 1 26 31 CFG=3
M  V30 31 1 26 32
M  V30 32 2 29 33
M  V30 33 1 34 29
M  V30 34 1 30 35
M  V30 35 2 32 36
M  V30 36 1 32 37
M  V30 37 1 34 38 CFG=1
M  V30 38 2 35 39
M  V30 39 1 35 40
M  V30 40 1 38 41
M  V30 41 1 42 40
M  V30 42 1 42 43 CFG=1
M  V30 43 1 42 44
M  V30 44 1 44 45
M  V30 45 1 45 46
M  V30 46 1 46 47
M  V30 47 1 21 28
M  V30 48 1 34 37
M  V30 END BOND
M  V30 BEGIN COLLECTION
M  V30 MDLV30/STERAC1 ATOMS=(6 5 9 17 26 34 42)
M  V30 END COLLECTION
M  V30 END CTAB
M  END
>  <Molecule Name>


>  <status>
DISCONTINUED

>  <cas>
11003-38-6

>  <name>
CAPREOMYCIN

>  <ID>
976

>  <Smiles>
NCCC[C@@H](CC(NC[C@@H](C(N/C(/C(N[C@@H]([C@H](CCN1)NC1=N)C(NC[C@@H](C(N[C@H]1CO)=O)N)=O)=O)=C/NC(N)=O)=O)NC1=O)=O)N

$$$$

Actelion Java MolfileCreator 2.0

  0  0  0  0  0  0              0 V3000
M  V30 BEGIN CTAB
M  V30 COUNTS 106 106 0 0 0
M  V30 BEGIN ATOM
M  V30 1 S 16.5272 -12.5112 0.0 0
M  V30 2 O 15.9505 -13.3282 0.0 0
M  V30 3 O 17.1039 -11.6943 0.0 0
M  V30 4 O 17.3442 -13.0879 0.0 0
M  V30 5 C 15.7102 -11.9345 0.0 0
M  V30 6 N 15.8012 -10.9387 0.0 0
M  V30 7 C 14.9842 -10.362 0.0 0
M  V30 8 C 15.0751 -9.3662 0.0 0
M  V30 9 C 14.2582 -8.7895 0.0 0 CFG=2
M  V30 10 N 13.5756 -9.5203 0.0 0
M  V30 11 C 14.7182 -7.9016 0.0 0
M  V30 12 C 12.7212 -10.0399 0.0 0
M  V30 13 O 15.6605 -8.2365 0.0 0
M  V30 14 N 14.9217 -6.9225 0.0 0
M  V30 15 O 13.1196 -10.9571 0.0 0
M  V30 16 C 11.7583 -10.3097 0.0 0 CFG=1
M  V30 17 C 14.8534 -5.9248 0.0 0 CFG=2
M  V30 18 N 10.7583 -10.3097 0.0 0
M  V30 19 C 11.8944 -11.3004 0.0 0
M  V30 20 C 14.5186 -4.9826 0.0 0
M  V30 21 C 15.8325 -5.7214 0.0 0 CFG=2
M  V30 22 C 9.7954 -10.0399 0.0 0
M  V30 23 C 11.1046 -11.9136 0.0 0
M  V30 24 O 15.4065 -4.5225 0.0 0
M  V30 25 N 13.9419 -4.1656 0.0 0
M  V30 26 O 16.4983 -6.4676 0.0 0
M  V30 27 C 16.1459 -4.7717 0.0 0
M  V30 28 O 9.397 -10.9571 0.0 0
M  V30 29 C 8.9409 -9.5203 0.0 0 CFG=1
M  V30 30 N 11.2407 -12.9043 0.0 0
M  V30 31 C 13.1662 -3.5345 0.0 0
M  V30 32 N 8.2584 -8.7895 0.0 0
M  V30 33 C 8.3099 -10.296 0.0 0
M  V30 34 C 10.4509 -13.5176 0.0 0
M  V30 35 C 12.249 -3.1361 0.0 0
M  V30 36 C 7.7983 -7.9016 0.0 0
M  V30 37 C 7.3225 -10.1373 0.0 0
M  V30 38 S 10.587 -14.5083 0.0 0
M  V30 39 C 11.2583 -3.0 0.0 0 CFG=2
M  V30 40 O 6.8561 -8.2365 0.0 0
M  V30 41 C 7.5949 -6.9225 0.0 0 CFG=2
M  V30 42 C 6.9663 -9.2029 0.0 0
M  V30 43 C 6.6914 -10.9131 0.0 0
M  V30 44 O 9.5963 -14.6444 0.0 0
M  V30 45 O 11.5777 -14.3721 0.0 0
M  V30 46 O 10.7232 -15.499 0.0 0
M  V30 47 N 11.2583 -2.0 0.0 0
M  V30 48 C 10.2676 -3.1361 0.0 0
M  V30 49 N 7.6631 -5.9248 0.0 0
M  V30 50 C 6.5972 -6.9907 0.0 0
M  V30 51 C 12.1243 -1.5 0.0 0
M  V30 52 O 9.9978 -2.1732 0.0 0
M  V30 53 N 9.3504 -3.5345 0.0 0
M  V30 54 C 7.998 -4.9826 0.0 0
M  V30 55 C 6.0393 -6.1609 0.0 0
M  V30 56 O 12.9903 -1.9999 0.0 0
M  V30 57 C 12.1243 -0.5 0.0 0 CFG=1
M  V30 58 C 8.5747 -4.1656 0.0 0 CFG=2
M  V30 59 O 7.1101 -4.5225 0.0 0
M  V30 60 C 6.479 -5.2627 0.0 0
M  V30 61 C 5.0416 -6.2291 0.0 0
M  V30 62 N 12.9903 0.0 0.0 0
M  V30 63 C 11.2583 0.0 0.0 0
M  V30 64 C 7.8438 -3.4831 0.0 0
M  V30 65 C 12.9903 0.9999 0.0 0
M  V30 66 C 11.2583 1.0 0.0 0
M  V30 67 C 8.0695 -2.5089 0.0 0
M  V30 68 O 12.1243 1.5 0.0 0
M  V30 69 C 13.8564 1.4999 0.0 0 CFG=1
M  V30 70 N 10.3923 1.5 0.0 0
M  V30 71 N 7.3387 -1.8263 0.0 0
M  V30 72 N 13.8564 2.4999 0.0 0
M  V30 73 C 14.7224 0.9999 0.0 0 CFG=2
M  V30 74 C 9.5262 1.0 0.0 0
M  V30 75 C 6.3822 -2.1179 0.0 0
M  V30 76 C 14.7224 2.9999 0.0 0
M  V30 77 O 14.7224 0.0 0.0 0
M  V30 78 C 15.5884 1.4999 0.0 0
M  V30 79 S 8.6602 1.5 0.0 0
M  V30 80 S 5.6513 -1.4354 0.0 0
M  V30 81 O 15.5884 2.4999 0.0 0
M  V30 82 C 14.7224 3.9999 0.0 0 CFG=1
M  V30 83 O 8.1602 0.6339 0.0 0
M  V30 84 O 9.1602 2.366 0.0 0
M  V30 85 O 7.7942 2.0 0.0 0
M  V30 86 O 4.9688 -2.1662 0.0 0
M  V30 87 O 6.3339 -0.7046 0.0 0
M  V30 88 O 4.9205 -0.7528 0.0 0
M  V30 89 N 15.5884 4.4999 0.0 0
M  V30 90 C 13.8564 4.4999 0.0 0
M  V30 91 C 15.5884 5.4999 0.0 0
M  V30 92 C 12.9903 4.0 0.0 0
M  V30 93 O 16.4544 5.9999 0.0 0
M  V30 94 C 14.7224 5.9999 0.0 0
M  V30 95 N 12.1243 4.5 0.0 0
M  V30 96 C 14.7224 6.9999 0.0 0
M  V30 97 C 11.2583 4.0 0.0 0
M  V30 98 C 13.8564 7.4999 0.0 0
M  V30 99 S 10.3923 4.5 0.0 0
M  V30 100 C 13.8564 8.4999 0.0 0 CFG=1
M  V30 101 O 9.8923 3.6339 0.0 0
M  V30 102 O 10.8923 5.366 0.0 0
M  V30 103 O 9.5262 5.0 0.0 0
M  V30 104 C 14.7224 8.9999 0.0 0
M  V30 105 C 12.9903 8.9999 0.0 0
M  V30 106 C 14.7224 9.9999 0.0 0
M  V30 END ATOM
M  V30 BEGIN BOND
M  V30 1 2 1 2
M  V30 2 2 1 3
M  V30 3 1 1 4
M  V30 4 1 1 5
M  V30 5 1 5 6
M  V30 6 1 6 7
M  V30 7 1 7 8
M  V30 8 1 9 8 CFG=3
M  V30 9 1 9 10
M  V30 10 1 9 11
M  V30 11 1 10 12
M  V30 12 2 11 13
M  V30 13 1 11 14
M  V30 14 2 12 15
M  V30 15 1 16 12
M  V30 16 1 17 14 CFG=3
M  V30 17 1 16 18
M  V30 18 1 16 19 CFG=3
M  V30 19 1 17 20
M  V30 20 1 21 17
M  V30 21 1 18 22
M  V30 22 1 19 23
M  V30 23 2 20 24
M  V30 24 1 20 25
M  V30 25 1 21 26 CFG=1
M  V30 26 1 21 27
M  V30 27 2 22 28
M  V30 28 1 29 22
M  V30 29 1 23 30
M  V30 30 1 25 31
M  V30 31 1 29 32
M  V30 32 1 29 33 CFG=3
M  V30 33 1 30 34
M  V30 34 1 31 35
M  V30 35 1 32 36
M  V30 36 1 33 37
M  V30 37 1 34 38
M  V30 38 1 39 35
M  V30 39 2 36 40
M  V30 40 1 41 36
M  V30 41 1 37 42
M  V30 42 1 37 43
M  V30 43 2 38 44
M  V30 44 2 38 45
M  V30 45 1 38 46
M  V30 46 1 39 47 CFG=1
M  V30 47 1 39 48
M  V30 48 1 41 49
M  V30 49 1 41 50 CFG=1
M  V30 50 1 47 51
M  V30 51 2 48 52
M  V30 52 1 48 53
M  V30 53 1 49 54
M  V30 54 1 50 55
M  V30 55 2 51 56
M  V30 56 1 57 51
M  V30 57 1 58 53
M  V30 58 2 54 59
M  V30 59 1 55 60
M  V30 60 1 55 61
M  V30 61 1 57 62 CFG=3
M  V30 62 1 57 63
M  V30 63 1 58 64 CFG=3
M  V30 64 1 62 65
M  V30 65 1 63 66
M  V30 66 1 64 67
M  V30 67 2 65 68
M  V30 68 1 69 65
M  V30 69 1 66 70
M  V30 70 1 67 71
M  V30 71 1 69 72 CFG=1
M  V30 72 1 73 69
M  V30 73 1 70 74
M  V30 74 1 71 75
M  V30 75 1 72 76
M  V30 76 1 73 77 CFG=1
M  V30 77 1 73 78
M  V30 78 1 74 79
M  V30 79 1 75 80
M  V30 80 2 76 81
M  V30 81 1 82 76
M  V30 82 2 79 83
M  V30 83 2 79 84
M  V30 84 1 79 85
M  V30 85 2 80 86
M  V30 86 2 80 87
M  V30 87 1 80 88
M  V30 88 1 82 89 CFG=3
M  V30 89 1 82 90
M  V30 90 1 89 91
M  V30 91 1 90 92
M  V30 92 2 91 93
M  V30 93 1 91 94
M  V30 94 1 92 95
M  V30 95 1 94 96
M  V30 96 1 95 97
M  V30 97 1 96 98
M  V30 98 1 97 99
M  V30 99 1 100 98
M  V30 100 2 99 101
M  V30 101 2 99 102
M  V30 102 1 99 103
M  V30 103 1 100 104
M  V30 104 1 100 105 CFG=3
M  V30 105 1 104 106
M  V30 106 1 54 58
M  V30 END BOND
M  V30 BEGIN COLLECTION
M  V30 MDLV30/STERAC1 ATOMS=(13 9 16 17 21 29 39 41 57 58 69 73 82 100)
M  V30 END COLLECTION
M  V30 END CTAB
M  END
>  <Molecule Name>


>  <status>
-

>  <cas>
8068-28-8

>  <name>
COLISTIMETHATE

>  <ID>
977

>  <Smiles>
CC[C@@H](C)CCCC(N[C@@H](CCNCS(O)(=O)=O)C(N[C@@H]([C@@H](C)O)C(N[C@@H](CCNCS(O)(=O)=O)C(N[C@@H](CCNC([C@H]([C@@H](C)O)NC([C@H](CCNCS(O)(=O)=O)NC([C@H](CCNCS(O)(=O)=O)NC([C@H](CC(C)C)NC([C@@H](CC(C)C)NC([C@H](CCNCS(O)(=O)=O)N1)=O)=O)=O)=O)=O)=O)C1=O)=O)=O)=O)=O

$$$$

Actelion Java MolfileCreator 2.0

  0  0  0  0  0  0              0 V3000
M  V30 BEGIN CTAB
M  V30 COUNTS 29 32 0 0 0
M  V30 BEGIN ATOM
M  V30 1 S 6.604 -1.2051 0.0 0
M  V30 2 C 7.7697 -0.2612 0.0 0
M  V30 3 C 5.346 -0.3882 0.0 0 CFG=2
M  V30 4 C 7.2321 1.1391 0.0 0 CFG=2
M  V30 5 C 8.8303 -1.3218 0.0 0
M  V30 6 C 9.2185 0.127 0.0 0
M  V30 7 N 5.7342 1.0606 0.0 0
M  V30 8 C 3.8971 0.0 0.0 0 CFG=2
M  V30 9 C 8.0491 2.3971 0.0 0
M  V30 10 C 4.2853 1.4488 0.0 0
M  V30 11 C 2.598 -0.75 0.0 0
M  V30 12 O 9.547 2.3186 0.0 0
M  V30 13 O 7.3681 3.7336 0.0 0 CHG=-1
M  V30 14 O 3.5353 2.7479 0.0 0
M  V30 15 O 2.598 -2.25 0.0 0
M  V30 16 N 1.299 0.0 0.0 0
M  V30 17 C 0.0 -0.75 0.0 0
M  V30 18 C -1.299 0.0 0.0 0
M  V30 19 C 0.0 -2.25 0.0 0
M  V30 20 O -1.299 1.5 0.0 0
M  V30 21 C -2.598 -0.75 0.0 0
M  V30 22 C -1.299 -3.0 0.0 0
M  V30 23 C 1.299 -3.0 0.0 0
M  V30 24 C 0.0 2.25 0.0 0
M  V30 25 C -2.598 -2.25 0.0 0
M  V30 26 C -1.299 -4.5 0.0 0
M  V30 27 C 1.299 -4.5 0.0 0
M  V30 28 C 0.0 3.75 0.0 0
M  V30 29 C 0.0 -5.25 0.0 0
M  V30 END ATOM
M  V30 BEGIN BOND
M  V30 1 1 1 2
M  V30 2 1 3 1 CFG=1
M  V30 3 1 4 2
M  V30 4 1 2 5
M  V30 5 1 2 6
M  V30 6 1 3 7
M  V30 7 1 8 3
M  V30 8 1 4 9 CFG=3
M  V30 9 1 7 10
M  V30 10 1 8 11 CFG=1
M  V30 11 2 9 12
M  V30 12 1 9 13
M  V30 13 2 10 14
M  V30 14 2 11 15
M  V30 15 1 11 16
M  V30 16 1 16 17
M  V30 17 2 17 18
M  V30 18 1 17 19
M  V30 19 1 18 20
M  V30 20 1 18 21
M  V30 21 1 19 22
M  V30 22 2 19 23
M  V30 23 1 20 24
M  V30 24 2 21 25
M  V30 25 2 22 26
M  V30 26 1 23 27
M  V30 27 1 24 28
M  V30 28 1 26 29
M  V30 29 1 4 7
M  V30 30 1 8 10
M  V30 31 1 22 25
M  V30 32 2 27 29
M  V30 END BOND
M  V30 BEGIN COLLECTION
M  V30 MDLV30/STERAC1 ATOMS=(3 3 4 8)
M  V30 END COLLECTION
M  V30 END CTAB
M  END
>  <Molecule Name>


>  <status>
-

>  <cas>
147-52-4

>  <name>
NAFCILLIN

>  <ID>
978

>  <Smiles>
CCOc(ccc1ccccc11)c1NC([C@H]([C@@H]1SC(C)(C)[C@@H](C([O-])=O)N11)C1=O)=O

$$$$

Actelion Java MolfileCreator 2.0

  0  0  0  0  0  0              0 V3000
M  V30 BEGIN CTAB
M  V30 COUNTS 26 28 0 0 0
M  V30 BEGIN ATOM
M  V30 1 S 6.604 -1.2051 0.0 0
M  V30 2 C 7.7697 -0.2612 0.0 0
M  V30 3 C 5.346 -0.3882 0.0 0 CFG=2
M  V30 4 C 7.2321 1.1391 0.0 0 CFG=2
M  V30 5 C 8.8303 -1.3218 0.0 0
M  V30 6 C 9.2185 0.127 0.0 0
M  V30 7 N 5.7342 1.0606 0.0 0
M  V30 8 C 3.8971 0.0 0.0 0 CFG=2
M  V30 9 C 8.0491 2.3971 0.0 0
M  V30 10 C 4.2853 1.4488 0.0 0
M  V30 11 N 2.598 -0.75 0.0 0
M  V30 12 O 9.547 2.3186 0.0 0
M  V30 13 O 7.3681 3.7336 0.0 0 CHG=-1
M  V30 14 O 3.5353 2.7479 0.0 0
M  V30 15 C 1.299 0.0 0.0 0
M  V30 16 O 1.299 1.5 0.0 0
M  V30 17 C 0.0 -0.75 0.0 0
M  V30 18 C -1.299 0.0 0.0 0
M  V30 19 C 0.0 -2.25 0.0 0
M  V30 20 O -1.299 1.5 0.0 0
M  V30 21 C -2.598 -0.75 0.0 0
M  V30 22 O 1.299 -3.0 0.0 0
M  V30 23 C -1.299 -3.0 0.0 0
M  V30 24 C -2.598 2.25 0.0 0
M  V30 25 C -2.598 -2.25 0.0 0
M  V30 26 C 2.598 -2.25 0.0 0
M  V30 END ATOM
M  V30 BEGIN BOND
M  V30 1 1 1 2
M  V30 2 1 3 1 CFG=1
M  V30 3 1 4 2
M  V30 4 1 2 5
M  V30 5 1 2 6
M  V30 6 1 3 7
M  V30 7 1 8 3
M  V30 8 1 4 9 CFG=3
M  V30 9 1 7 10
M  V30 10 1 8 11 CFG=1
M  V30 11 2 9 12
M  V30 12 1 9 13
M  V30 13 2 10 14
M  V30 14 1 11 15
M  V30 15 2 15 16
M  V30 16 1 15 17
M  V30 17 2 17 18
M  V30 18 1 17 19
M  V30 19 1 18 20
M  V30 20 1 18 21
M  V30 21 1 19 22
M  V30 22 2 19 23
M  V30 23 1 20 24
M  V30 24 2 21 25
M  V30 25 1 22 26
M  V30 26 1 4 7
M  V30 27 1 8 10
M  V30 28 1 23 25
M  V30 END BOND
M  V30 BEGIN COLLECTION
M  V30 MDLV30/STERAC1 ATOMS=(3 3 4 8)
M  V30 END COLLECTION
M  V30 END CTAB
M  END
>  <Molecule Name>


>  <status>
DISCONTINUED

>  <cas>
61-32-5

>  <name>
METHICILLIN

>  <ID>
979

>  <Smiles>
CC(C)([C@H]1C([O-])=O)S[C@@H]([C@H]2NC(c(c(OC)ccc3)c3OC)=O)N1C2=O

$$$$

Actelion Java MolfileCreator 2.0

  0  0  0  0  0  0              0 V3000
M  V30 BEGIN CTAB
M  V30 COUNTS 28 31 0 0 0
M  V30 BEGIN ATOM
M  V30 1 S 6.604 -1.2051 0.0 0
M  V30 2 C 7.7697 -0.2612 0.0 0
M  V30 3 C 5.346 -0.3882 0.0 0 CFG=2
M  V30 4 C 7.2321 1.1391 0.0 0 CFG=2
M  V30 5 C 8.8303 -1.3218 0.0 0
M  V30 6 C 9.2185 0.127 0.0 0
M  V30 7 N 5.7342 1.0606 0.0 0
M  V30 8 C 3.8971 0.0 0.0 0 CFG=2
M  V30 9 C 8.0491 2.3971 0.0 0
M  V30 10 C 4.2853 1.4488 0.0 0
M  V30 11 N 2.598 -0.75 0.0 0
M  V30 12 O 9.547 2.3186 0.0 0
M  V30 13 O 7.3681 3.7336 0.0 0 CHG=-1
M  V30 14 O 3.5353 2.7479 0.0 0
M  V30 15 C 1.299 0.0 0.0 0
M  V30 16 O 1.299 1.5 0.0 0
M  V30 17 C 0.0 -0.75 0.0 0
M  V30 18 C -1.3703 -0.1398 0.0 0
M  V30 19 C -0.1567 -2.2417 0.0 0
M  V30 20 N -2.374 -1.2546 0.0 0
M  V30 21 C -1.6821 1.3273 0.0 0
M  V30 22 O -1.624 -2.5536 0.0 0
M  V30 23 C 0.9579 -3.2454 0.0 0
M  V30 24 C -0.5674 2.331 0.0 0
M  V30 25 C -3.1087 1.7908 0.0 0
M  V30 26 C -0.8793 3.7982 0.0 0
M  V30 27 C -3.4206 3.258 0.0 0
M  V30 28 C -2.3059 4.2617 0.0 0
M  V30 END ATOM
M  V30 BEGIN BOND
M  V30 1 1 1 2
M  V30 2 1 3 1 CFG=1
M  V30 3 1 4 2
M  V30 4 1 2 5
M  V30 5 1 2 6
M  V30 6 1 3 7
M  V30 7 1 8 3
M  V30 8 1 4 9 CFG=3
M  V30 9 1 7 10
M  V30 10 1 8 11 CFG=1
M  V30 11 2 9 12
M  V30 12 1 9 13
M  V30 13 2 10 14
M  V30 14 1 11 15
M  V30 15 2 15 16
M  V30 16 1 15 17
M  V30 17 1 17 18
M  V30 18 2 17 19
M  V30 19 2 18 20
M  V30 20 1 18 21
M  V30 21 1 19 22
M  V30 22 1 19 23
M  V30 23 2 21 24
M  V30 24 1 21 25
M  V30 25 1 24 26
M  V30 26 2 25 27
M  V30 27 2 26 28
M  V30 28 1 4 7
M  V30 29 1 8 10
M  V30 30 1 20 22
M  V30 31 1 27 28
M  V30 END BOND
M  V30 BEGIN COLLECTION
M  V30 MDLV30/STERAC1 ATOMS=(3 3 4 8)
M  V30 END COLLECTION
M  V30 END CTAB
M  END
>  <Molecule Name>


>  <status>
-

>  <cas>
66-79-5

>  <name>
OXACILLIN

>  <ID>
980

>  <Smiles>
CC(C)([C@H]1C([O-])=O)S[C@@H]([C@H]2NC(c3c(C)onc3-c3ccccc3)=O)N1C2=O

$$$$

Actelion Java MolfileCreator 2.0

  0  0  0  0  0  0              0 V3000
M  V30 BEGIN CTAB
M  V30 COUNTS 23 25 0 0 0
M  V30 BEGIN ATOM
M  V30 1 S 5.5058 -3.6968 0.0 0
M  V30 2 C 6.9062 -4.2343 0.0 0
M  V30 3 C 5.5843 -2.1988 0.0 0 CFG=2
M  V30 4 C 7.8502 -3.0686 0.0 0 CFG=2
M  V30 5 C 6.518 -5.6832 0.0 0
M  V30 6 C 7.9669 -5.295 0.0 0
M  V30 7 N 7.0332 -1.8106 0.0 0
M  V30 8 C 5.1961 -0.75 0.0 0 CFG=2
M  V30 9 C 9.3481 -3.1471 0.0 0
M  V30 10 C 6.645 -0.3617 0.0 0
M  V30 11 N 3.8971 0.0 0.0 0
M  V30 12 O 10.0291 -4.4836 0.0 0
M  V30 13 O 10.1651 -1.8891 0.0 0 CHG=-1
M  V30 14 O 7.395 0.9372 0.0 0
M  V30 15 C 2.598 -0.75 0.0 0
M  V30 16 O 2.598 -2.25 0.0 0
M  V30 17 C 1.299 0.0 0.0 0
M  V30 18 C 0.0 -0.75 0.0 0
M  V30 19 C -1.299 0.0 0.0 0
M  V30 20 C 0.0 -2.25 0.0 0
M  V30 21 C -2.598 -0.75 0.0 0
M  V30 22 C -1.299 -3.0 0.0 0
M  V30 23 C -2.598 -2.25 0.0 0
M  V30 END ATOM
M  V30 BEGIN BOND
M  V30 1 1 1 2
M  V30 2 1 3 1 CFG=1
M  V30 3 1 4 2
M  V30 4 1 2 5
M  V30 5 1 2 6
M  V30 6 1 3 7
M  V30 7 1 8 3
M  V30 8 1 4 9 CFG=3
M  V30 9 1 7 10
M  V30 10 1 8 11 CFG=1
M  V30 11 2 9 12
M  V30 12 1 9 13
M  V30 13 2 10 14
M  V30 14 1 11 15
M  V30 15 2 15 16
M  V30 16 1 15 17
M  V30 17 1 17 18
M  V30 18 2 18 19
M  V30 19 1 18 20
M  V30 20 1 19 21
M  V30 21 2 20 22
M  V30 22 2 21 23
M  V30 23 1 4 7
M  V30 24 1 8 10
M  V30 25 1 22 23
M  V30 END BOND
M  V30 BEGIN COLLECTION
M  V30 MDLV30/STERAC1 ATOMS=(3 3 4 8)
M  V30 END COLLECTION
M  V30 END CTAB
M  END
>  <Molecule Name>


>  <status>
-

>  <cas>
61-33-6

>  <name>
PENICILLIN G

>  <ID>
981

>  <Smiles>
CC(C)([C@H]1C([O-])=O)S[C@@H]([C@H]2NC(Cc3ccccc3)=O)N1C2=O

$$$$

Actelion Java MolfileCreator 2.0

  0  0  0  0  0  0              0 V3000
M  V30 BEGIN CTAB
M  V30 COUNTS 24 26 0 0 0
M  V30 BEGIN ATOM
M  V30 1 S 9.2021 -1.2051 0.0 0
M  V30 2 C 10.3678 -0.2612 0.0 0
M  V30 3 C 7.944 -0.3882 0.0 0 CFG=2
M  V30 4 C 9.8302 1.1391 0.0 0 CFG=2
M  V30 5 C 11.4284 -1.3218 0.0 0
M  V30 6 C 11.8166 0.127 0.0 0
M  V30 7 N 8.3323 1.0606 0.0 0
M  V30 8 C 6.4952 0.0 0.0 0 CFG=2
M  V30 9 C 10.6472 2.3971 0.0 0
M  V30 10 C 6.8834 1.4488 0.0 0
M  V30 11 N 5.1961 -0.75 0.0 0
M  V30 12 O 12.1451 2.3186 0.0 0
M  V30 13 O 9.9662 3.7336 0.0 0 CHG=-1
M  V30 14 O 6.1334 2.7479 0.0 0
M  V30 15 C 3.8971 0.0 0.0 0
M  V30 16 O 3.8971 1.5 0.0 0
M  V30 17 C 2.598 -0.75 0.0 0
M  V30 18 O 1.299 0.0 0.0 0
M  V30 19 C 0.0 -0.75 0.0 0
M  V30 20 C -1.299 0.0 0.0 0
M  V30 21 C 0.0 -2.25 0.0 0
M  V30 22 C -2.598 -0.75 0.0 0
M  V30 23 C -1.299 -3.0 0.0 0
M  V30 24 C -2.598 -2.25 0.0 0
M  V30 END ATOM
M  V30 BEGIN BOND
M  V30 1 1 1 2
M  V30 2 1 3 1 CFG=1
M  V30 3 1 4 2
M  V30 4 1 2 5
M  V30 5 1 2 6
M  V30 6 1 3 7
M  V30 7 1 8 3
M  V30 8 1 4 9 CFG=3
M  V30 9 1 7 10
M  V30 10 1 8 11 CFG=1
M  V30 11 2 9 12
M  V30 12 1 9 13
M  V30 13 2 10 14
M  V30 14 1 11 15
M  V30 15 2 15 16
M  V30 16 1 15 17
M  V30 17 1 17 18
M  V30 18 1 18 19
M  V30 19 2 19 20
M  V30 20 1 19 21
M  V30 21 1 20 22
M  V30 22 2 21 23
M  V30 23 2 22 24
M  V30 24 1 4 7
M  V30 25 1 8 10
M  V30 26 1 23 24
M  V30 END BOND
M  V30 BEGIN COLLECTION
M  V30 MDLV30/STERAC1 ATOMS=(3 3 4 8)
M  V30 END COLLECTION
M  V30 END CTAB
M  END
>  <Molecule Name>


>  <status>
-

>  <cas>
87-08-1

>  <name>
PENICILLIN V

>  <ID>
982

>  <Smiles>
CC(C)([C@H]1C([O-])=O)S[C@@H]([C@H]2NC(COc3ccccc3)=O)N1C2=O

$$$$

Actelion Java MolfileCreator 2.0

  0  0  0  0  0  0              0 V3000
M  V30 BEGIN CTAB
M  V30 COUNTS 18 18 0 0 0
M  V30 BEGIN ATOM
M  V30 1 O 4.3301 0.0 0.0 0
M  V30 2 N 3.4641 -0.5 0.0 0
M  V30 3 N 2.598 0.0 0.0 0
M  V30 4 C 1.732 -0.5 0.0 0
M  V30 5 C 2.598 1.0 0.0 0
M  V30 6 O 1.732 -1.5 0.0 0
M  V30 7 N 0.866 0.0 0.0 0
M  V30 8 C 0.0 -0.5 0.0 0 CFG=1
M  V30 9 C -0.866 0.0 0.0 0 CFG=2
M  V30 10 C 0.0 -1.4999 0.0 0 CFG=1
M  V30 11 O -1.732 -0.4999 0.0 0
M  V30 12 O -0.866 1.0 0.0 0
M  V30 13 O 0.866 -2.0 0.0 0
M  V30 14 C -0.866 -1.9999 0.0 0 CFG=1
M  V30 15 C -1.732 -1.4999 0.0 0 CFG=1
M  V30 16 O -0.866 -2.9999 0.0 0
M  V30 17 C -2.598 -1.9999 0.0 0
M  V30 18 O -2.598 -2.9999 0.0 0
M  V30 END ATOM
M  V30 BEGIN BOND
M  V30 1 2 1 2
M  V30 2 1 2 3
M  V30 3 1 3 4
M  V30 4 1 3 5
M  V30 5 2 4 6
M  V30 6 1 4 7
M  V30 7 1 8 7 CFG=3
M  V30 8 1 9 8
M  V30 9 1 10 8
M  V30 10 1 9 11
M  V30 11 1 9 12 CFG=3
M  V30 12 1 10 13 CFG=1
M  V30 13 1 14 10
M  V30 14 1 15 11
M  V30 15 1 14 16 CFG=3
M  V30 16 1 15 17 CFG=1
M  V30 17 1 17 18
M  V30 18 1 14 15
M  V30 END BOND
M  V30 BEGIN COLLECTION
M  V30 MDLV30/STERAC1 ATOMS=(5 8 9 10 14 15)
M  V30 END COLLECTION
M  V30 END CTAB
M  END
>  <Molecule Name>


>  <status>
-

>  <cas>
18883-66-4

>  <name>
STREPTOZOCIN

>  <ID>
983

>  <Smiles>
CN(C(N[C@H]([C@H]1O)[C@@H](O)O[C@H](CO)[C@H]1O)=O)N=O

$$$$

Actelion Java MolfileCreator 2.0

  0  0  0  0  0  0              0 V3000
M  V30 BEGIN CTAB
M  V30 COUNTS 27 28 0 0 0
M  V30 BEGIN ATOM
M  V30 1 Cl 4.3301 0.0 0.0 0
M  V30 2 C 3.4641 -0.5 0.0 0 CFG=1
M  V30 3 C 2.598 0.0 0.0 0 CFG=2
M  V30 4 C 3.4641 -1.5 0.0 0
M  V30 5 N 1.732 -0.5 0.0 0
M  V30 6 C 2.598 1.0 0.0 0 CFG=2
M  V30 7 C 0.866 0.0 0.0 0
M  V30 8 O 1.732 1.5 0.0 0
M  V30 9 C 3.4641 1.5 0.0 0 CFG=1
M  V30 10 O 0.866 1.0 0.0 0
M  V30 11 C 0.0 -0.5 0.0 0 CFG=2
M  V30 12 C 1.732 2.5 0.0 0 CFG=1
M  V30 13 O 4.3301 1.0 0.0 0
M  V30 14 C 3.4641 2.5 0.0 0 CFG=2
M  V30 15 N -0.9135 -0.0932 0.0 0
M  V30 16 C -0.1045 -1.4945 0.0 0
M  V30 17 S 0.866 3.0 0.0 0
M  V30 18 C 2.598 3.0 0.0 0 CFG=2
M  V30 19 O 4.3301 3.0 0.0 0
M  V30 20 C -1.5826 -0.8364 0.0 0
M  V30 21 C -1.1214 0.8848 0.0 0
M  V30 22 C -1.0826 -1.7024 0.0 0 CFG=1
M  V30 23 C 0.866 4.0 0.0 0
M  V30 24 O 2.598 4.0 0.0 0
M  V30 25 C -1.4894 -2.6159 0.0 0
M  V30 26 C -2.4839 -2.7205 0.0 0
M  V30 27 C -2.8906 -3.634 0.0 0
M  V30 END ATOM
M  V30 BEGIN BOND
M  V30 1 1 2 1 CFG=3
M  V30 2 1 3 2
M  V30 3 1 2 4
M  V30 4 1 3 5 CFG=3
M  V30 5 1 6 3
M  V30 6 1 5 7
M  V30 7 1 6 8 CFG=3
M  V30 8 1 9 6
M  V30 9 2 7 10
M  V30 10 1 11 7 CFG=1
M  V30 11 1 12 8
M  V30 12 1 9 13 CFG=3
M  V30 13 1 14 9
M  V30 14 1 11 15
M  V30 15 1 11 16
M  V30 16 1 12 17 CFG=1
M  V30 17 1 18 12
M  V30 18 1 14 19 CFG=3
M  V30 19 1 15 20
M  V30 20 1 15 21
M  V30 21 1 22 16
M  V30 22 1 17 23
M  V30 23 1 18 24 CFG=1
M  V30 24 1 22 25 CFG=3
M  V30 25 1 25 26
M  V30 26 1 26 27
M  V30 27 1 14 18
M  V30 28 1 20 22
M  V30 END BOND
M  V30 BEGIN COLLECTION
M  V30 MDLV30/STERAC1 ATOMS=(9 2 3 6 9 11 12 14 18 22)
M  V30 END COLLECTION
M  V30 END CTAB
M  END
>  <Molecule Name>


>  <status>
-

>  <cas>
18323-44-9

>  <name>
CLINDAMYCIN

>  <ID>
984

>  <Smiles>
CCC[C@@H](C1)CN(C)[C@H]1C(N[C@@H]([C@@H](C)Cl)[C@@H]([C@H]([C@H]([C@@H]1O)O)O)O[C@H]1SC)=O

$$$$

Actelion Java MolfileCreator 2.0

  0  0  0  0  0  0              0 V3000
M  V30 BEGIN CTAB
M  V30 COUNTS 37 39 0 0 0
M  V30 BEGIN ATOM
M  V30 1 S 8.6602 -1.5 0.0 0
M  V30 2 C 7.7942 -2.0 0.0 0 CFG=2
M  V30 3 C 8.6602 -0.5 0.0 0
M  V30 4 N 6.9282 -1.4999 0.0 0
M  V30 5 C 7.2942 -2.866 0.0 0 CFG=2
M  V30 6 C 7.7942 0.0 0.0 0
M  V30 7 C 6.9282 -0.5 0.0 0
M  V30 8 C 6.4282 -2.366 0.0 0
M  V30 9 N 7.553 -3.8319 0.0 0
M  V30 10 C 7.7942 0.9999 0.0 0
M  V30 11 C 6.0621 0.0 0.0 0
M  V30 12 O 5.4622 -2.6248 0.0 0
M  V30 13 C 8.5189 -4.0907 0.0 0
M  V30 14 O 8.6602 1.4999 0.0 0
M  V30 15 O 6.0621 0.9999 0.0 0
M  V30 16 O 5.1961 -0.5 0.0 0
M  V30 17 O 9.226 -3.3836 0.0 0
M  V30 18 C 8.7777 -5.0566 0.0 0
M  V30 19 C 8.6602 2.4999 0.0 0
M  V30 20 C 4.3301 0.0 0.0 0 CFG=2
M  V30 21 N 9.7437 -5.3155 0.0 0
M  V30 22 C 8.0706 -5.7638 0.0 0
M  V30 23 O 3.4641 -0.5 0.0 0
M  V30 24 C 4.3301 1.0 0.0 0
M  V30 25 O 10.4508 -4.6084 0.0 0
M  V30 26 N 7.0829 -5.6073 0.0 0
M  V30 27 C 8.2271 -6.7514 0.0 0
M  V30 28 C 2.598 0.0 0.0 0
M  V30 29 C 11.4167 -4.8672 0.0 0
M  V30 30 C 6.629 -6.4983 0.0 0
M  V30 31 S 7.3361 -7.2054 0.0 0
M  V30 32 O 2.598 1.0 0.0 0
M  V30 33 O 1.732 -0.5 0.0 0
M  V30 34 N 5.6413 -6.6548 0.0 0
M  V30 35 C 0.866 0.0 0.0 0
M  V30 36 C 0.866 1.0 0.0 0
M  V30 37 C 0.0 -0.5 0.0 0
M  V30 END ATOM
M  V30 BEGIN BOND
M  V30 1 1 2 1 CFG=1
M  V30 2 1 1 3
M  V30 3 1 2 4
M  V30 4 1 5 2
M  V30 5 1 3 6
M  V30 6 1 4 7
M  V30 7 1 4 8
M  V30 8 1 5 9 CFG=1
M  V30 9 1 6 10
M  V30 10 1 7 11
M  V30 11 2 8 12
M  V30 12 1 9 13
M  V30 13 1 10 14
M  V30 14 2 11 15
M  V30 15 1 11 16
M  V30 16 2 13 17
M  V30 17 1 13 18
M  V30 18 1 14 19
M  V30 19 1 20 16 CFG=3
M  V30 20 2 18 21
M  V30 21 1 18 22
M  V30 22 1 20 23
M  V30 23 1 20 24
M  V30 24 1 21 25
M  V30 25 1 22 26
M  V30 26 2 22 27
M  V30 27 1 23 28
M  V30 28 1 25 29
M  V30 29 2 26 30
M  V30 30 1 27 31
M  V30 31 2 28 32
M  V30 32 1 28 33
M  V30 33 1 30 34
M  V30 34 1 33 35
M  V30 35 1 35 36
M  V30 36 1 35 37
M  V30 37 1 5 8
M  V30 38 2 6 7
M  V30 39 1 30 31
M  V30 END BOND
M  V30 BEGIN COLLECTION
M  V30 MDLV30/STERAC1 ATOMS=(3 2 5 20)
M  V30 END COLLECTION
M  V30 END CTAB
M  END
>  <Molecule Name>


>  <status>
-

>  <cas>
87239-81-4

>  <name>
CEFPODOXIME PROXETIL

>  <ID>
985

>  <Smiles>
CC(C)OC(O[C@H](C)OC(C1=C(COC)CS[C@@H]([C@H]2NC(/C(/c3csc(N)n3)=N\OC)=O)N1C2=O)=O)=O

$$$$

Actelion Java MolfileCreator 2.0

  0  0  0  0  0  0              0 V3000
M  V30 BEGIN CTAB
M  V30 COUNTS 29 32 0 0 0
M  V30 BEGIN ATOM
M  V30 1 Cl 8.1206 -1.5371 0.0 0
M  V30 2 C 7.0058 -2.5408 0.0 0
M  V30 3 C 5.5793 -2.0773 0.0 0
M  V30 4 C 7.3177 -4.008 0.0 0
M  V30 5 C 5.2674 -0.6101 0.0 0
M  V30 6 C 4.4645 -3.081 0.0 0
M  V30 7 C 6.203 -5.0117 0.0 0
M  V30 8 N 6.2711 0.5046 0.0 0
M  V30 9 C 3.8971 0.0 0.0 0
M  V30 10 C 4.7764 -4.5482 0.0 0
M  V30 11 O 5.5211 1.8036 0.0 0
M  V30 12 C 4.0539 1.4917 0.0 0
M  V30 13 C 2.598 -0.75 0.0 0
M  V30 14 C 2.9391 2.4954 0.0 0
M  V30 15 O 2.598 -2.25 0.0 0
M  V30 16 N 1.299 0.0 0.0 0
M  V30 17 C 0.0 -0.75 0.0 0 CFG=1
M  V30 18 C -1.4488 -0.3617 0.0 0
M  V30 19 C -0.3882 -2.1988 0.0 0 CFG=1
M  V30 20 O -2.1988 0.9372 0.0 0
M  V30 21 N -1.8371 -1.8106 0.0 0
M  V30 22 S -0.3097 -3.6968 0.0 0
M  V30 23 C -2.654 -3.0686 0.0 0 CFG=1
M  V30 24 C -1.71 -4.2343 0.0 0
M  V30 25 C -4.152 -3.1471 0.0 0
M  V30 26 C -2.7707 -5.295 0.0 0
M  V30 27 C -1.3218 -5.6832 0.0 0
M  V30 28 O -4.9689 -1.8891 0.0 0
M  V30 29 O -4.833 -4.4836 0.0 0 CHG=-1
M  V30 END ATOM
M  V30 BEGIN BOND
M  V30 1 1 1 2
M  V30 2 2 2 3
M  V30 3 1 2 4
M  V30 4 1 3 5
M  V30 5 1 3 6
M  V30 6 2 4 7
M  V30 7 2 5 8
M  V30 8 1 5 9
M  V30 9 2 6 10
M  V30 10 1 8 11
M  V30 11 2 9 12
M  V30 12 1 9 13
M  V30 13 1 12 14
M  V30 14 2 13 15
M  V30 15 1 13 16
M  V30 16 1 17 16 CFG=3
M  V30 17 1 17 18
M  V30 18 1 19 17
M  V30 19 2 18 20
M  V30 20 1 18 21
M  V30 21 1 19 22 CFG=3
M  V30 22 1 23 21
M  V30 23 1 22 24
M  V30 24 1 23 25 CFG=1
M  V30 25 1 24 26
M  V30 26 1 24 27
M  V30 27 2 25 28
M  V30 28 1 25 29
M  V30 29 1 7 10
M  V30 30 1 11 12
M  V30 31 1 19 21
M  V30 32 1 23 24
M  V30 END BOND
M  V30 BEGIN COLLECTION
M  V30 MDLV30/STERAC1 ATOMS=(3 17 19 23)
M  V30 END COLLECTION
M  V30 END CTAB
M  END
>  <Molecule Name>


>  <status>
DISCONTINUED

>  <cas>
61-72-3

>  <name>
CLOXACILLIN

>  <ID>
986

>  <Smiles>
CC(C)([C@H]1C([O-])=O)S[C@@H]([C@H]2NC(c3c(C)onc3-c(cccc3)c3Cl)=O)N1C2=O

$$$$

Actelion Java MolfileCreator 2.0

  0  0  0  0  0  0              0 V3000
M  V30 BEGIN CTAB
M  V30 COUNTS 32 35 0 0 0
M  V30 BEGIN ATOM
M  V30 1 O 3.8971 -7.5 0.0 0
M  V30 2 C 5.1961 -6.75 0.0 0
M  V30 3 C 6.4951 -7.5 0.0 0
M  V30 4 C 5.1961 -5.25 0.0 0
M  V30 5 C 6.4951 -9.0 0.0 0
M  V30 6 C 7.7942 -6.75 0.0 0
M  V30 7 C 3.8971 -4.5 0.0 0
M  V30 8 C 6.4951 -4.5 0.0 0 CFG=2
M  V30 9 O 5.1961 -9.75 0.0 0
M  V30 10 C 7.7942 -9.75 0.0 0
M  V30 11 C 9.0932 -7.5 0.0 0
M  V30 12 C 7.7942 -5.25 0.0 0 CFG=1
M  V30 13 O 2.598 -5.25 0.0 0
M  V30 14 C 3.8971 -3.0 0.0 0 CFG=1
M  V30 15 C 6.4951 -3.0 0.0 0
M  V30 16 C 9.0932 -9.0 0.0 0
M  V30 17 O 9.2942 -5.25 0.0 0
M  V30 18 C 8.5442 -3.9509 0.0 0
M  V30 19 O 2.598 -3.75 0.0 0
M  V30 20 C 2.598 -2.25 0.0 0
M  V30 21 C 5.1961 -2.25 0.0 0 CFG=2
M  V30 22 O 1.299 -3.0 0.0 0
M  V30 23 C 2.598 -0.75 0.0 0
M  V30 24 C 5.1961 -0.75 0.0 0 CFG=2
M  V30 25 C 3.8971 0.0 0.0 0
M  V30 26 C 1.299 0.0 0.0 0
M  V30 27 N 6.4951 0.0 0.0 0
M  V30 28 O 3.8971 1.5 0.0 0
M  V30 29 O 1.299 1.5 0.0 0
M  V30 30 N 0.0 -0.75 0.0 0
M  V30 31 C 7.7942 -0.75 0.0 0
M  V30 32 C 6.4951 1.5 0.0 0
M  V30 END ATOM
M  V30 BEGIN BOND
M  V30 1 2 1 2
M  V30 2 1 2 3
M  V30 3 1 2 4
M  V30 4 2 3 5
M  V30 5 1 3 6
M  V30 6 2 4 7
M  V30 7 1 8 4
M  V30 8 1 5 9
M  V30 9 1 5 10
M  V30 10 2 6 11
M  V30 11 1 12 6
M  V30 12 1 7 13
M  V30 13 1 14 7
M  V30 14 1 8 15 CFG=1
M  V30 15 2 10 16
M  V30 16 1 12 17 CFG=1
M  V30 17 1 12 18
M  V30 18 1 14 19 CFG=3
M  V30 19 1 14 20
M  V30 20 1 21 14
M  V30 21 2 20 22
M  V30 22 1 20 23
M  V30 23 1 24 21
M  V30 24 2 23 25
M  V30 25 1 23 26
M  V30 26 1 24 27 CFG=3
M  V30 27 1 25 28
M  V30 28 2 26 29
M  V30 29 1 26 30
M  V30 30 1 27 31
M  V30 31 1 27 32
M  V30 32 1 8 12
M  V30 33 1 11 16
M  V30 34 1 21 15 CFG=1
M  V30 35 1 24 25
M  V30 END BOND
M  V30 BEGIN COLLECTION
M  V30 MDLV30/STERAC1 ATOMS=(5 8 12 14 21 24)
M  V30 END COLLECTION
M  V30 END CTAB
M  END
>  <Molecule Name>


>  <status>
-

>  <cas>
60-54-8

>  <name>
TETRACYCLINE

>  <ID>
987

>  <Smiles>
C[C@@]([C@H](C[C@H]([C@H](C(O)=C(C(N)=O)C1=O)N(C)C)[C@@]11O)C2=C1O)(c1cccc(O)c1C2=O)O

$$$$

Actelion Java MolfileCreator 2.0

  0  0  0  0  0  0              0 V3000
M  V30 BEGIN CTAB
M  V30 COUNTS 16 16 0 0 0
M  V30 BEGIN ATOM
M  V30 1 O 0.0 3.7778 0.0 0
M  V30 2 C 1.3087 3.0223 0.0 0
M  V30 3 N 1.3087 1.5111 0.0 0
M  V30 4 N 2.6174 3.7778 0.0 0
M  V30 5 C 2.6174 0.7555 0.0 0
M  V30 6 C 3.9261 3.0223 0.0 0
M  V30 7 O 2.4838 -0.622 0.0 0
M  V30 8 C 3.9261 1.5111 0.0 0
M  V30 9 O 5.2348 3.7778 0.0 0
M  V30 10 C 3.9261 0.0 0.0 0 CFG=2
M  V30 11 C 5.2348 0.7555 0.0 0
M  V30 12 C 5.2348 -0.7555 0.0 0
M  V30 13 C 2.8845 -1.0227 0.0 0
M  V30 14 C 6.5435 1.5111 0.0 0
M  V30 15 C 6.5435 0.0 0.0 0
M  V30 16 C 7.8522 -0.7555 0.0 0
M  V30 END ATOM
M  V30 BEGIN BOND
M  V30 1 2 1 2
M  V30 2 1 2 3
M  V30 3 1 2 4
M  V30 4 1 3 5
M  V30 5 1 4 6
M  V30 6 2 5 7
M  V30 7 1 5 8
M  V30 8 2 6 9
M  V30 9 1 10 8
M  V30 10 1 8 11
M  V30 11 1 10 12
M  V30 12 1 10 13 CFG=3
M  V30 13 1 11 14
M  V30 14 1 12 15
M  V30 15 1 15 16
M  V30 16 1 6 8
M  V30 END BOND
M  V30 BEGIN COLLECTION
M  V30 MDLV30/STERAC1 ATOMS=(1 10)
M  V30 END COLLECTION
M  V30 END CTAB
M  END
>  <Molecule Name>


>  <status>
-

>  <cas>
76-74-4

>  <name>
PENTOBARBITAL

>  <ID>
988

>  <Smiles>
CCCC(C)C(CC)(C(NC(N1)=O)=O)C1=O

$$$$

Actelion Java MolfileCreator 2.0

  0  0  0  0  0  0              0 V3000
M  V30 BEGIN CTAB
M  V30 COUNTS 28 30 0 0 0
M  V30 BEGIN ATOM
M  V30 1 S 3.4641 -2.4318 0.0 0
M  V30 2 C 3.7229 -1.4659 0.0 0 CFG=2
M  V30 3 C 4.1712 -3.1389 0.0 0
M  V30 4 N 4.6888 -1.2071 0.0 0
M  V30 5 C 3.4641 -0.5 0.0 0 CFG=2
M  V30 6 C 5.1371 -2.8801 0.0 0
M  V30 7 C 5.3959 -1.9142 0.0 0
M  V30 8 C 4.43 -0.2411 0.0 0
M  V30 9 N 2.598 0.0 0.0 0
M  V30 10 C 5.8442 -3.5872 0.0 0
M  V30 11 C 6.3618 -1.6553 0.0 0
M  V30 12 O 4.93 0.6248 0.0 0
M  V30 13 C 1.732 -0.5 0.0 0
M  V30 14 O 6.8101 -3.3284 0.0 0
M  V30 15 O 7.0689 -2.3625 0.0 0
M  V30 16 O 6.6206 -0.6894 0.0 0 CHG=-1
M  V30 17 O 1.732 -1.5 0.0 0
M  V30 18 C 0.866 0.0 0.0 0 CFG=1
M  V30 19 C 7.5172 -4.0355 0.0 0
M  V30 20 N 0.866 1.0 0.0 0
M  V30 21 C 0.0 -0.5 0.0 0
M  V30 22 O 7.2584 -5.0014 0.0 0
M  V30 23 C 8.4831 -3.7767 0.0 0
M  V30 24 C -0.866 0.0 0.0 0
M  V30 25 C 0.0 -1.4999 0.0 0
M  V30 26 C -1.732 -0.4999 0.0 0
M  V30 27 C -0.866 -1.9999 0.0 0
M  V30 28 C -1.732 -1.4999 0.0 0
M  V30 END ATOM
M  V30 BEGIN BOND
M  V30 1 1 2 1 CFG=1
M  V30 2 1 1 3
M  V30 3 1 2 4
M  V30 4 1 5 2
M  V30 5 1 3 6
M  V30 6 1 4 7
M  V30 7 1 4 8
M  V30 8 1 5 9 CFG=1
M  V30 9 1 6 10
M  V30 10 1 7 11
M  V30 11 2 8 12
M  V30 12 1 9 13
M  V30 13 1 10 14
M  V30 14 2 11 15
M  V30 15 1 11 16
M  V30 16 2 13 17
M  V30 17 1 18 13
M  V30 18 1 14 19
M  V30 19 1 18 20 CFG=3
M  V30 20 1 18 21
M  V30 21 2 19 22
M  V30 22 1 19 23
M  V30 23 2 21 24
M  V30 24 1 21 25
M  V30 25 1 24 26
M  V30 26 2 25 27
M  V30 27 2 26 28
M  V30 28 1 5 8
M  V30 29 2 6 7
M  V30 30 1 27 28
M  V30 END BOND
M  V30 BEGIN COLLECTION
M  V30 MDLV30/STERAC1 ATOMS=(3 2 5 18)
M  V30 END COLLECTION
M  V30 END CTAB
M  END
>  <Molecule Name>


>  <status>
DISCONTINUED

>  <cas>
3577-01-3

>  <name>
CEPHALOGLYCIN

>  <ID>
989

>  <Smiles>
CC(OCC(CS[C@H]1[C@H]2NC([C@H](c3ccccc3)N)=O)=C(C([O-])=O)N1C2=O)=O

$$$$

Actelion Java MolfileCreator 2.0

  0  0  0  0  0  0              0 V3000
M  V30 BEGIN CTAB
M  V30 COUNTS 65 67 0 0 0
M  V30 BEGIN ATOM
M  V30 1 O 14.4239 -0.1314 0.0 0
M  V30 2 C 13.4842 0.2105 0.0 0
M  V30 3 O 13.743 1.1765 0.0 0
M  V30 4 C 13.0616 -0.6957 0.0 0
M  V30 5 C 13.8302 2.1727 0.0 0 CFG=1
M  V30 6 C 12.488 -1.5148 0.0 0 CFG=2
M  V30 7 C 13.743 3.1689 0.0 0 CFG=1
M  V30 8 C 14.8302 2.1727 0.0 0
M  V30 9 O 13.2541 -2.1576 0.0 0
M  V30 10 C 11.7809 -2.2219 0.0 0
M  V30 11 C 13.4842 4.1348 0.0 0 CFG=2
M  V30 12 C 14.7278 3.3425 0.0 0
M  V30 13 C 10.9617 -2.7955 0.0 0 CFG=2
M  V30 14 O 14.4239 4.4768 0.0 0
M  V30 15 C 13.0616 5.0411 0.0 0 CFG=2
M  V30 16 O 11.4617 -3.6615 0.0 0
M  V30 17 C 10.0554 -3.2181 0.0 0
M  V30 18 C 12.488 5.8602 0.0 0
M  V30 19 C 13.9276 5.5411 0.0 0
M  V30 20 C 9.0895 -3.4769 0.0 0 CFG=2
M  V30 21 C 11.7809 6.5673 0.0 0
M  V30 22 O 9.2632 -4.4617 0.0 0
M  V30 23 C 8.0933 -3.5641 0.0 0
M  V30 24 C 10.9617 7.1409 0.0 0
M  V30 25 C 7.0971 -3.4769 0.0 0
M  V30 26 C 10.0554 7.5635 0.0 0
M  V30 27 C 6.1312 -3.2181 0.0 0 CFG=1
M  V30 28 C 9.0895 7.8224 0.0 0
M  V30 29 O 5.7892 -4.1578 0.0 0
M  V30 30 C 5.2249 -2.7955 0.0 0 CFG=2
M  V30 31 C 8.0933 7.9095 0.0 0
M  V30 32 O 4.7249 -3.6615 0.0 0
M  V30 33 C 4.4057 -2.2219 0.0 0
M  V30 34 C 7.0971 7.8224 0.0 0
M  V30 35 C 3.4641 -1.4999 0.0 0 CFG=2
M  V30 36 C 6.1312 7.5635 0.0 0
M  V30 37 O 3.4641 -0.5 0.0 0
M  V30 38 O 3.3989 -2.4978 0.0 0
M  V30 39 C 2.598 -1.9999 0.0 0
M  V30 40 C 5.2249 7.1409 0.0 0
M  V30 41 C 2.598 0.0 0.0 0 CFG=2
M  V30 42 C 1.732 -1.5 0.0 0 CFG=1
M  V30 43 C 4.4057 6.5673 0.0 0
M  V30 44 C 1.732 -0.5 0.0 0 CFG=1
M  V30 45 C 2.4436 1.1765 0.0 0
M  V30 46 O 0.866 -1.9999 0.0 0
M  V30 47 C 3.6986 5.8602 0.0 0
M  V30 48 C 0.866 0.0 0.0 0
M  V30 49 C 2.3565 2.1727 0.0 0 CFG=2
M  V30 50 C 3.1251 5.0411 0.0 0
M  V30 51 O 0.866 1.0 0.0 0
M  V30 52 O 0.0 -0.5 0.0 0 CHG=-1
M  V30 53 O 1.3565 2.1727 0.0 0
M  V30 54 C 2.4436 3.1689 0.0 0
M  V30 55 C 2.7024 4.1348 0.0 0
M  V30 56 C 0.8565 3.0387 0.0 0 CFG=2
M  V30 57 O 1.3565 3.9047 0.0 0
M  V30 58 C -0.1434 3.0387 0.0 0 CFG=1
M  V30 59 C 0.8565 4.7707 0.0 0 CFG=1
M  V30 60 O -0.6434 2.1727 0.0 0
M  V30 61 C -0.6434 3.9047 0.0 0 CFG=2
M  V30 62 C -0.1434 4.7707 0.0 0 CFG=2
M  V30 63 C 1.3565 5.6368 0.0 0
M  V30 64 N -1.6434 3.9047 0.0 0
M  V30 65 O -0.6434 5.6368 0.0 0
M  V30 END ATOM
M  V30 BEGIN BOND
M  V30 1 2 1 2
M  V30 2 1 2 3
M  V30 3 1 2 4
M  V30 4 1 5 3
M  V30 5 1 6 4
M  V30 6 1 7 5
M  V30 7 1 5 8 CFG=3
M  V30 8 1 6 9 CFG=3
M  V30 9 1 6 10
M  V30 10 1 11 7
M  V30 11 1 7 12 CFG=1
M  V30 12 1 13 10
M  V30 13 1 11 14 CFG=1
M  V30 14 1 15 11
M  V30 15 1 13 16 CFG=3
M  V30 16 1 13 17
M  V30 17 1 15 18
M  V30 18 1 15 19 CFG=3
M  V30 19 1 20 17
M  V30 20 2 18 21
M  V30 21 1 20 22 CFG=3
M  V30 22 1 20 23
M  V30 23 1 21 24
M  V30 24 1 23 25
M  V30 25 2 24 26
M  V30 26 1 27 25
M  V30 27 1 26 28
M  V30 28 1 27 29 CFG=1
M  V30 29 1 30 27
M  V30 30 1 28 31
M  V30 31 1 30 32 CFG=3
M  V30 32 1 30 33
M  V30 33 1 31 34
M  V30 34 1 35 33
M  V30 35 2 34 36
M  V30 36 1 35 37
M  V30 37 1 35 38 CFG=1
M  V30 38 1 35 39
M  V30 39 1 36 40
M  V30 40 1 41 37 CFG=3
M  V30 41 1 42 39
M  V30 42 2 40 43
M  V30 43 1 44 41
M  V30 44 1 41 45
M  V30 45 1 42 46 CFG=3
M  V30 46 1 43 47
M  V30 47 1 44 48 CFG=1
M  V30 48 1 49 45
M  V30 49 2 47 50
M  V30 50 2 48 51
M  V30 51 1 48 52
M  V30 52 1 49 53 CFG=1
M  V30 53 1 49 54
M  V30 54 1 50 55
M  V30 55 1 56 53 CFG=1
M  V30 56 1 56 57
M  V30 57 1 58 56
M  V30 58 1 59 57
M  V30 59 1 58 60 CFG=1
M  V30 60 1 61 58
M  V30 61 1 62 59
M  V30 62 1 59 63 CFG=1
M  V30 63 1 61 64 CFG=1
M  V30 64 1 62 65 CFG=3
M  V30 65 1 42 44
M  V30 66 2 54 55
M  V30 67 1 61 62
M  V30 END BOND
M  V30 BEGIN COLLECTION
M  V30 MDLV30/STERAC1 ATOMS=(19 5 6 7 11 13 15 20 27 30 35 41 42 44 49 56 58 59 61 62)
M  V30 END COLLECTION
M  V30 END CTAB
M  END
>  <Molecule Name>


>  <status>
-

>  <cas>
1400-61-9

>  <name>
NYSTATIN

>  <ID>
990

>  <Smiles>
C[C@H]([C@H]([C@@H]([C@@H]1O)N)O)O[C@H]1O[C@@H](C[C@@H]([C@@H]([C@H](C1)O)C([O-])=O)O[C@@]1(C[C@H]([C@@H](CC[C@H](C[C@H](C[C@H](CC(O[C@H](C)[C@@H]1C)=O)O)O)O)O)O)O)/C=C\C=C/C=C\C=C/CC/C=C\C=C/[C@H](C)[C@H]1O

$$$$

Actelion Java MolfileCreator 2.0

  0  0  0  0  0  0              0 V3000
M  V30 BEGIN CTAB
M  V30 COUNTS 13 14 0 0 0
M  V30 BEGIN ATOM
M  V30 1 I 0.866 0.0 0.0 0
M  V30 2 C 0.0 -0.5 0.0 0
M  V30 3 C -0.866 0.0 0.0 0
M  V30 4 C 0.0 -1.4999 0.0 0
M  V30 5 O -0.866 1.0 0.0 0
M  V30 6 C -1.732 -0.4999 0.0 0
M  V30 7 C -0.866 -1.9999 0.0 0
M  V30 8 N -2.598 0.0 0.0 0
M  V30 9 C -1.732 -1.4999 0.0 0
M  V30 10 Cl -0.866 -2.9999 0.0 0
M  V30 11 C -3.4641 -0.4999 0.0 0
M  V30 12 C -2.598 -1.9999 0.0 0
M  V30 13 C -3.4641 -1.4999 0.0 0
M  V30 END ATOM
M  V30 BEGIN BOND
M  V30 1 1 1 2
M  V30 2 2 2 3
M  V30 3 1 2 4
M  V30 4 1 3 5
M  V30 5 1 3 6
M  V30 6 2 4 7
M  V30 7 2 6 8
M  V30 8 1 6 9
M  V30 9 1 7 10
M  V30 10 1 8 11
M  V30 11 2 9 12
M  V30 12 2 11 13
M  V30 13 1 7 9
M  V30 14 1 12 13
M  V30 END BOND
M  V30 END CTAB
M  END
>  <Molecule Name>


>  <status>
DISCONTINUED

>  <cas>
130-26-7

>  <name>
CLIOQUINOL

>  <ID>
991

>  <Smiles>
Oc(c1ncccc1c(Cl)c1)c1I

$$$$

Actelion Java MolfileCreator 2.0

  0  0  0  0  0  0              0 V3000
M  V30 BEGIN CTAB
M  V30 COUNTS 32 35 0 0 0
M  V30 BEGIN ATOM
M  V30 1 Cl 3.4641 4.5 0.0 0
M  V30 2 C 4.3301 4.0 0.0 0
M  V30 3 C 4.3301 3.0 0.0 0
M  V30 4 C 5.1961 4.5 0.0 0
M  V30 5 C 5.1961 2.4999 0.0 0
M  V30 6 C 3.4641 2.4999 0.0 0 CFG=2
M  V30 7 C 6.0621 4.0 0.0 0
M  V30 8 C 5.1961 1.5 0.0 0
M  V30 9 C 6.0621 3.0 0.0 0
M  V30 10 O 2.598 2.9999 0.0 0
M  V30 11 C 3.4641 1.4999 0.0 0 CFG=1
M  V30 12 O 6.0621 1.0 0.0 0
M  V30 13 C 4.3301 1.0 0.0 0
M  V30 14 O 6.9282 2.5 0.0 0
M  V30 15 C 2.598 0.9999 0.0 0
M  V30 16 C 4.3301 0.0 0.0 0
M  V30 17 C 2.598 0.0 0.0 0 CFG=1
M  V30 18 O 5.1961 -0.4999 0.0 0
M  V30 19 C 3.4641 -0.5 0.0 0 CFG=1
M  V30 20 C 1.732 -0.5 0.0 0 CFG=1
M  V30 21 O 4.3301 -1.0 0.0 0
M  V30 22 C 3.4641 -1.5 0.0 0
M  V30 23 N 0.866 0.0 0.0 0
M  V30 24 C 1.732 -1.5 0.0 0
M  V30 25 O 4.3301 -1.9999 0.0 0
M  V30 26 C 2.598 -2.0 0.0 0
M  V30 27 C 0.866 1.0 0.0 0
M  V30 28 C 0.0 -0.5 0.0 0
M  V30 29 O 0.866 -2.0 0.0 0
M  V30 30 C 2.598 -3.0 0.0 0
M  V30 31 O 1.732 -3.5 0.0 0
M  V30 32 N 3.4641 -3.5 0.0 0
M  V30 END ATOM
M  V30 BEGIN BOND
M  V30 1 1 1 2
M  V30 2 2 2 3
M  V30 3 1 2 4
M  V30 4 1 3 5
M  V30 5 1 6 3
M  V30 6 2 4 7
M  V30 7 1 5 8
M  V30 8 2 5 9
M  V30 9 1 6 10 CFG=1
M  V30 10 1 11 6
M  V30 11 2 8 12
M  V30 12 1 8 13
M  V30 13 1 9 14
M  V30 14 1 11 15 CFG=1
M  V30 15 2 13 16
M  V30 16 1 17 15 CFG=1
M  V30 17 1 16 18
M  V30 18 1 19 16
M  V30 19 1 20 17
M  V30 20 1 19 21 CFG=3
M  V30 21 1 19 22
M  V30 22 1 20 23 CFG=3
M  V30 23 1 20 24
M  V30 24 2 22 25
M  V30 25 1 22 26
M  V30 26 1 23 27
M  V30 27 1 23 28
M  V30 28 1 24 29
M  V30 29 1 26 30
M  V30 30 2 30 31
M  V30 31 1 30 32
M  V30 32 1 7 9
M  V30 33 1 11 13
M  V30 34 1 17 19
M  V30 35 2 24 26
M  V30 END BOND
M  V30 BEGIN COLLECTION
M  V30 MDLV30/STERAC1 ATOMS=(5 6 11 17 19 20)
M  V30 END COLLECTION
M  V30 END CTAB
M  END
>  <Molecule Name>


>  <status>
-

>  <cas>
127-33-3

>  <name>
DEMECLOCYCLINE

>  <ID>
992

>  <Smiles>
CN(C)[C@H]([C@@H](C[C@@H]([C@H](c(c(C1=O)c(cc2)O)c2Cl)O)C1=C1O)[C@@]11O)C(O)=C(C(N)=O)C1=O

$$$$

Actelion Java MolfileCreator 2.0

  0  0  0  0  0  0              0 V3000
M  V30 BEGIN CTAB
M  V30 COUNTS 33 36 0 0 0
M  V30 BEGIN ATOM
M  V30 1 O 3.8971 -7.5 0.0 0
M  V30 2 C 5.1961 -6.75 0.0 0
M  V30 3 C 6.4951 -7.5 0.0 0
M  V30 4 C 5.1961 -5.25 0.0 0
M  V30 5 C 6.4951 -9.0 0.0 0
M  V30 6 C 7.7942 -6.75 0.0 0
M  V30 7 C 3.8971 -4.5 0.0 0
M  V30 8 C 6.4951 -4.5 0.0 0 CFG=2
M  V30 9 O 5.1961 -9.75 0.0 0
M  V30 10 C 7.7942 -9.75 0.0 0
M  V30 11 C 9.0932 -7.5 0.0 0
M  V30 12 C 7.7942 -5.25 0.0 0 CFG=1
M  V30 13 O 2.598 -5.25 0.0 0
M  V30 14 C 3.8971 -3.0 0.0 0 CFG=1
M  V30 15 C 6.4951 -3.0 0.0 0 CFG=2
M  V30 16 C 9.0932 -9.0 0.0 0
M  V30 17 O 9.2942 -5.25 0.0 0
M  V30 18 C 8.5442 -3.9509 0.0 0
M  V30 19 O 2.598 -3.75 0.0 0
M  V30 20 C 2.598 -2.25 0.0 0
M  V30 21 C 5.1961 -2.25 0.0 0 CFG=2
M  V30 22 O 7.7942 -2.25 0.0 0
M  V30 23 O 1.299 -3.0 0.0 0
M  V30 24 C 2.598 -0.75 0.0 0
M  V30 25 C 5.1961 -0.75 0.0 0 CFG=2
M  V30 26 C 3.8971 0.0 0.0 0
M  V30 27 C 1.299 0.0 0.0 0
M  V30 28 N 6.4951 0.0 0.0 0
M  V30 29 O 3.8971 1.5 0.0 0
M  V30 30 O 1.299 1.5 0.0 0
M  V30 31 N 0.0 -0.75 0.0 0
M  V30 32 C 7.7942 -0.75 0.0 0
M  V30 33 C 6.4951 1.5 0.0 0
M  V30 END ATOM
M  V30 BEGIN BOND
M  V30 1 2 1 2
M  V30 2 1 2 3
M  V30 3 1 2 4
M  V30 4 2 3 5
M  V30 5 1 3 6
M  V30 6 2 4 7
M  V30 7 1 8 4 CFG=1
M  V30 8 1 5 9
M  V30 9 1 5 10
M  V30 10 2 6 11
M  V30 11 1 12 6
M  V30 12 1 7 13
M  V30 13 1 14 7
M  V30 14 1 15 8
M  V30 15 2 10 16
M  V30 16 1 12 17 CFG=1
M  V30 17 1 12 18
M  V30 18 1 14 19 CFG=3
M  V30 19 1 14 20
M  V30 20 1 21 14
M  V30 21 1 15 22 CFG=3
M  V30 22 2 20 23
M  V30 23 1 20 24
M  V30 24 1 21 25 CFG=1
M  V30 25 2 24 26
M  V30 26 1 24 27
M  V30 27 1 25 28 CFG=3
M  V30 28 1 26 29
M  V30 29 2 27 30
M  V30 30 1 27 31
M  V30 31 1 28 32
M  V30 32 1 28 33
M  V30 33 1 8 12
M  V30 34 1 11 16
M  V30 35 1 21 15
M  V30 36 1 25 26
M  V30 END BOND
M  V30 BEGIN COLLECTION
M  V30 MDLV30/STERAC1 ATOMS=(6 8 12 14 15 21 25)
M  V30 END COLLECTION
M  V30 END CTAB
M  END
>  <Molecule Name>


>  <status>
DISCONTINUED

>  <cas>
79-57-2

>  <name>
OXYTETRACYCLINE

>  <ID>
993

>  <Smiles>
C[C@@]([C@H]([C@H]([C@H]([C@H](C(O)=C(C(N)=O)C1=O)N(C)C)[C@@]11O)O)C2=C1O)(c1cccc(O)c1C2=O)O

$$$$

Actelion Java MolfileCreator 2.0

  0  0  0  0  0  0              0 V3000
M  V30 BEGIN CTAB
M  V30 COUNTS 26 28 0 0 0
M  V30 BEGIN ATOM
M  V30 1 S 9.202 -1.2051 0.0 0
M  V30 2 C 10.3678 -0.2612 0.0 0
M  V30 3 C 7.944 -0.3882 0.0 0 CFG=2
M  V30 4 C 9.8302 1.1391 0.0 0 CFG=2
M  V30 5 C 11.4284 -1.3218 0.0 0
M  V30 6 C 11.8166 0.127 0.0 0
M  V30 7 N 8.3323 1.0606 0.0 0
M  V30 8 C 6.4952 0.0 0.0 0 CFG=2
M  V30 9 C 10.6472 2.3971 0.0 0
M  V30 10 C 6.8834 1.4488 0.0 0
M  V30 11 N 5.1961 -0.75 0.0 0
M  V30 12 O 12.1451 2.3186 0.0 0
M  V30 13 O 9.9662 3.7336 0.0 0 CHG=-1
M  V30 14 O 6.1334 2.7479 0.0 0
M  V30 15 C 3.8971 0.0 0.0 0
M  V30 16 O 3.8971 1.5 0.0 0
M  V30 17 C 2.598 -0.75 0.0 0 CFG=2
M  V30 18 C 2.598 -2.25 0.0 0
M  V30 19 C 1.299 0.0 0.0 0
M  V30 20 C 1.299 -3.0 0.0 0
M  V30 21 C 3.8971 -3.0 0.0 0
M  V30 22 O 1.299 1.5 0.0 0
M  V30 23 O 0.0 -0.75 0.0 0 CHG=-1
M  V30 24 C 1.299 -4.5 0.0 0
M  V30 25 C 3.8971 -4.5 0.0 0
M  V30 26 C 2.598 -5.25 0.0 0
M  V30 END ATOM
M  V30 BEGIN BOND
M  V30 1 1 1 2
M  V30 2 1 3 1 CFG=1
M  V30 3 1 4 2
M  V30 4 1 2 5
M  V30 5 1 2 6
M  V30 6 1 3 7
M  V30 7 1 8 3
M  V30 8 1 4 9 CFG=3
M  V30 9 1 7 10
M  V30 10 1 8 11 CFG=1
M  V30 11 2 9 12
M  V30 12 1 9 13
M  V30 13 2 10 14
M  V30 14 1 11 15
M  V30 15 2 15 16
M  V30 16 1 17 15 CFG=3
M  V30 17 1 17 18
M  V30 18 1 17 19
M  V30 19 2 18 20
M  V30 20 1 18 21
M  V30 21 2 19 22
M  V30 22 1 19 23
M  V30 23 1 20 24
M  V30 24 2 21 25
M  V30 25 2 24 26
M  V30 26 1 4 7
M  V30 27 1 8 10
M  V30 28 1 25 26
M  V30 END BOND
M  V30 BEGIN COLLECTION
M  V30 MDLV30/STERAC1 ATOMS=(4 3 4 8 17)
M  V30 END COLLECTION
M  V30 END CTAB
M  END
>  <Molecule Name>


>  <status>
DISCONTINUED

>  <cas>
4697-36-3

>  <name>
CARBENICILLIN

>  <ID>
994

>  <Smiles>
CC(C)([C@H]1C([O-])=O)S[C@@H]([C@H]2NC([C@@H](C([O-])=O)c3ccccc3)=O)N1C2=O

$$$$

Actelion Java MolfileCreator 2.0

  0  0  0  0  0  0              0 V3000
M  V30 BEGIN CTAB
M  V30 COUNTS 15 17 0 0 0
M  V30 BEGIN ATOM
M  V30 1 N 1.4558 1.4917 0.0 0
M  V30 2 C 1.299 0.0 0.0 0
M  V30 3 C 2.923 1.8036 0.0 0
M  V30 4 N 2.6693 -0.6101 0.0 0
M  V30 5 C 0.0 -0.75 0.0 0 CFG=1
M  V30 6 C 3.673 0.5046 0.0 0
M  V30 7 C -1.299 0.0 0.0 0
M  V30 8 C 0.0 -2.25 0.0 0
M  V30 9 C -2.598 -0.7499 0.0 0
M  V30 10 C -1.299 1.5 0.0 0
M  V30 11 C -1.299 -2.9999 0.0 0
M  V30 12 C -3.8971 0.0 0.0 0
M  V30 13 C -2.598 -2.2499 0.0 0
M  V30 14 C -2.598 2.25 0.0 0
M  V30 15 C -3.8971 1.5 0.0 0
M  V30 END ATOM
M  V30 BEGIN BOND
M  V30 1 2 1 2
M  V30 2 1 1 3
M  V30 3 1 2 4
M  V30 4 1 5 2 CFG=3
M  V30 5 1 3 6
M  V30 6 1 5 7
M  V30 7 1 5 8
M  V30 8 2 7 9
M  V30 9 1 7 10
M  V30 10 1 8 11
M  V30 11 1 9 12
M  V30 12 1 9 13
M  V30 13 2 10 14
M  V30 14 2 12 15
M  V30 15 1 4 6
M  V30 16 1 11 13
M  V30 17 1 14 15
M  V30 END BOND
M  V30 BEGIN COLLECTION
M  V30 MDLV30/STERAC1 ATOMS=(1 5)
M  V30 END COLLECTION
M  V30 END CTAB
M  END
>  <Molecule Name>


>  <status>
-

>  <cas>
84-22-0

>  <name>
TETRAHYDROZOLINE

>  <ID>
995

>  <Smiles>
C1NC(C(CCC2)c3c2cccc3)=NC1

$$$$

Actelion Java MolfileCreator 2.0

  0  0  0  0  0  0              0 V3000
M  V30 BEGIN CTAB
M  V30 COUNTS 65 67 0 0 0
M  V30 BEGIN ATOM
M  V30 1 O 14.4239 -0.1314 0.0 0
M  V30 2 C 13.4842 0.2105 0.0 0
M  V30 3 O 13.743 1.1765 0.0 0
M  V30 4 C 13.0616 -0.6957 0.0 0
M  V30 5 C 13.8302 2.1727 0.0 0 CFG=1
M  V30 6 C 12.488 -1.5148 0.0 0 CFG=2
M  V30 7 C 13.743 3.1689 0.0 0 CFG=1
M  V30 8 C 14.8302 2.1727 0.0 0
M  V30 9 O 13.2541 -2.1576 0.0 0
M  V30 10 C 11.7809 -2.2219 0.0 0
M  V30 11 C 13.4842 4.1348 0.0 0 CFG=2
M  V30 12 C 14.7278 3.3425 0.0 0
M  V30 13 C 10.9617 -2.7955 0.0 0 CFG=2
M  V30 14 O 14.4239 4.4768 0.0 0
M  V30 15 C 13.0616 5.0411 0.0 0 CFG=2
M  V30 16 O 11.4617 -3.6615 0.0 0
M  V30 17 C 10.0554 -3.2181 0.0 0
M  V30 18 C 12.488 5.8602 0.0 0
M  V30 19 C 13.9276 5.5411 0.0 0
M  V30 20 C 9.0895 -3.4769 0.0 0
M  V30 21 C 11.7809 6.5673 0.0 0
M  V30 22 C 8.0933 -3.5641 0.0 0 CFG=1
M  V30 23 C 10.9617 7.1409 0.0 0
M  V30 24 O 8.0933 -4.5641 0.0 0
M  V30 25 C 7.0971 -3.4769 0.0 0 CFG=2
M  V30 26 C 10.0554 7.5635 0.0 0
M  V30 27 O 6.9235 -4.4617 0.0 0
M  V30 28 C 6.1312 -3.2181 0.0 0
M  V30 29 C 9.0895 7.8224 0.0 0
M  V30 30 C 5.2249 -2.7955 0.0 0 CFG=2
M  V30 31 C 8.0933 7.9095 0.0 0
M  V30 32 O 4.7249 -3.6615 0.0 0
M  V30 33 C 4.4057 -2.2219 0.0 0
M  V30 34 C 7.0971 7.8224 0.0 0
M  V30 35 C 3.4641 -1.4999 0.0 0 CFG=2
M  V30 36 C 6.1312 7.5635 0.0 0
M  V30 37 O 3.4641 -0.5 0.0 0
M  V30 38 O 3.3989 -2.4978 0.0 0
M  V30 39 C 2.598 -1.9999 0.0 0
M  V30 40 C 5.2249 7.1409 0.0 0
M  V30 41 C 2.598 0.0 0.0 0 CFG=2
M  V30 42 C 1.732 -1.5 0.0 0 CFG=1
M  V30 43 C 4.4057 6.5673 0.0 0
M  V30 44 C 1.732 -0.5 0.0 0 CFG=1
M  V30 45 C 2.4436 1.1765 0.0 0
M  V30 46 O 0.866 -1.9999 0.0 0
M  V30 47 C 3.6986 5.8602 0.0 0
M  V30 48 C 0.866 0.0 0.0 0
M  V30 49 C 2.3565 2.1727 0.0 0 CFG=2
M  V30 50 C 3.1251 5.0411 0.0 0
M  V30 51 O 0.866 1.0 0.0 0
M  V30 52 O 0.0 -0.5 0.0 0 CHG=-1
M  V30 53 O 1.3565 2.1727 0.0 0
M  V30 54 C 2.4436 3.1689 0.0 0
M  V30 55 C 2.7024 4.1348 0.0 0
M  V30 56 C 0.8565 3.0387 0.0 0 CFG=2
M  V30 57 O 1.3565 3.9047 0.0 0
M  V30 58 C -0.1434 3.0387 0.0 0 CFG=1
M  V30 59 C 0.8565 4.7707 0.0 0 CFG=1
M  V30 60 O -0.6434 2.1727 0.0 0
M  V30 61 C -0.6434 3.9047 0.0 0 CFG=2
M  V30 62 C -0.1434 4.7707 0.0 0 CFG=2
M  V30 63 C 1.3565 5.6368 0.0 0
M  V30 64 N -1.6434 3.9047 0.0 0
M  V30 65 O -0.6434 5.6368 0.0 0
M  V30 END ATOM
M  V30 BEGIN BOND
M  V30 1 2 1 2
M  V30 2 1 2 3
M  V30 3 1 2 4
M  V30 4 1 5 3
M  V30 5 1 6 4
M  V30 6 1 7 5
M  V30 7 1 5 8 CFG=3
M  V30 8 1 6 9 CFG=3
M  V30 9 1 6 10
M  V30 10 1 11 7
M  V30 11 1 7 12 CFG=1
M  V30 12 1 13 10
M  V30 13 1 11 14 CFG=1
M  V30 14 1 15 11
M  V30 15 1 13 16 CFG=3
M  V30 16 1 13 17
M  V30 17 1 15 18
M  V30 18 1 15 19 CFG=3
M  V30 19 1 17 20
M  V30 20 2 18 21
M  V30 21 1 22 20
M  V30 22 1 21 23
M  V30 23 1 22 24 CFG=1
M  V30 24 1 25 22
M  V30 25 2 23 26
M  V30 26 1 25 27 CFG=3
M  V30 27 1 25 28
M  V30 28 1 26 29
M  V30 29 1 30 28
M  V30 30 2 29 31
M  V30 31 1 30 32 CFG=3
M  V30 32 1 30 33
M  V30 33 1 31 34
M  V30 34 1 35 33
M  V30 35 2 34 36
M  V30 36 1 35 37
M  V30 37 1 35 38 CFG=1
M  V30 38 1 35 39
M  V30 39 1 36 40
M  V30 40 1 41 37 CFG=3
M  V30 41 1 42 39
M  V30 42 2 40 43
M  V30 43 1 44 41
M  V30 44 1 41 45
M  V30 45 1 42 46 CFG=3
M  V30 46 1 43 47
M  V30 47 1 44 48 CFG=1
M  V30 48 1 49 45
M  V30 49 2 47 50
M  V30 50 2 48 51
M  V30 51 1 48 52
M  V30 52 1 49 53 CFG=1
M  V30 53 1 49 54
M  V30 54 1 50 55
M  V30 55 1 56 53 CFG=1
M  V30 56 1 56 57
M  V30 57 1 58 56
M  V30 58 1 59 57
M  V30 59 1 58 60 CFG=1
M  V30 60 1 61 58
M  V30 61 1 62 59
M  V30 62 1 59 63 CFG=1
M  V30 63 1 61 64 CFG=1
M  V30 64 1 62 65 CFG=3
M  V30 65 1 42 44
M  V30 66 2 54 55
M  V30 67 1 61 62
M  V30 END BOND
M  V30 BEGIN COLLECTION
M  V30 MDLV30/STERAC1 ATOMS=(19 5 6 7 11 13 15 22 25 30 35 41 42 44 49 56 58 59 61 62)
M  V30 END COLLECTION
M  V30 END CTAB
M  END
>  <Molecule Name>


>  <status>
-

>  <cas>
1397-89-3

>  <name>
AMPHOTERICIN B

>  <ID>
996

>  <Smiles>
C[C@H]([C@H]([C@@H]([C@@H]1O)N)O)O[C@H]1O[C@@H](C[C@@H]([C@@H]([C@H](C1)O)C([O-])=O)O[C@@]1(C[C@H](C[C@H]([C@@H](CC[C@H](C[C@H](CC(O[C@H](C)[C@@H]1C)=O)O)O)O)O)O)O)/C=C\C=C/C=C\C=C/C=C\C=C/C=C\[C@H](C)[C@H]1O

$$$$

Actelion Java MolfileCreator 2.0

  0  0  0  0  0  0              0 V3000
M  V30 BEGIN CTAB
M  V30 COUNTS 33 36 0 0 0
M  V30 BEGIN ATOM
M  V30 1 O 5.1961 -5.25 0.0 0
M  V30 2 C 3.8971 -4.5 0.0 0
M  V30 3 C 3.8971 -3.0 0.0 0
M  V30 4 C 2.598 -5.25 0.0 0
M  V30 5 C 5.1961 -2.25 0.0 0
M  V30 6 C 2.598 -2.25 0.0 0
M  V30 7 C 2.598 -6.75 0.0 0
M  V30 8 C 1.299 -4.5 0.0 0 CFG=2
M  V30 9 O 6.4951 -3.0 0.0 0
M  V30 10 C 5.1961 -0.7499 0.0 0
M  V30 11 C 2.598 -0.75 0.0 0
M  V30 12 C 1.299 -3.0 0.0 0
M  V30 13 O 3.8971 -7.5 0.0 0
M  V30 14 C 1.299 -7.5 0.0 0 CFG=1
M  V30 15 C 0.0 -5.25 0.0 0
M  V30 16 C 3.8971 0.0 0.0 0
M  V30 17 N 1.299 0.0 0.0 0
M  V30 18 O 2.598 -8.25 0.0 0
M  V30 19 C 1.299 -9.0 0.0 0
M  V30 20 C 0.0 -6.75 0.0 0 CFG=2
M  V30 21 C 1.299 1.5 0.0 0
M  V30 22 C 0.0 -0.75 0.0 0
M  V30 23 O 2.598 -9.75 0.0 0
M  V30 24 C 0.0 -9.75 0.0 0
M  V30 25 C -1.299 -7.5 0.0 0 CFG=2
M  V30 26 C -1.299 -9.0 0.0 0
M  V30 27 C 0.0 -11.25 0.0 0
M  V30 28 N -2.598 -6.75 0.0 0
M  V30 29 O -2.598 -9.75 0.0 0
M  V30 30 O -1.299 -12.0 0.0 0
M  V30 31 N 1.299 -12.0 0.0 0
M  V30 32 C -2.598 -5.25 0.0 0
M  V30 33 C -3.8971 -7.5 0.0 0
M  V30 END ATOM
M  V30 BEGIN BOND
M  V30 1 2 1 2
M  V30 2 1 2 3
M  V30 3 1 2 4
M  V30 4 2 3 5
M  V30 5 1 3 6
M  V30 6 2 4 7
M  V30 7 1 8 4
M  V30 8 1 5 9
M  V30 9 1 5 10
M  V30 10 2 6 11
M  V30 11 1 6 12
M  V30 12 1 7 13
M  V30 13 1 14 7
M  V30 14 1 8 15 CFG=1
M  V30 15 2 10 16
M  V30 16 1 11 17
M  V30 17 1 14 18 CFG=3
M  V30 18 1 14 19
M  V30 19 1 20 14
M  V30 20 1 17 21
M  V30 21 1 17 22
M  V30 22 2 19 23
M  V30 23 1 19 24
M  V30 24 1 25 20
M  V30 25 2 24 26
M  V30 26 1 24 27
M  V30 27 1 25 28 CFG=3
M  V30 28 1 26 29
M  V30 29 2 27 30
M  V30 30 1 27 31
M  V30 31 1 28 32
M  V30 32 1 28 33
M  V30 33 1 8 12
M  V30 34 1 11 16
M  V30 35 1 20 15 CFG=1
M  V30 36 1 25 26
M  V30 END BOND
M  V30 BEGIN COLLECTION
M  V30 MDLV30/STERAC1 ATOMS=(4 8 14 20 25)
M  V30 END COLLECTION
M  V30 END CTAB
M  END
>  <Molecule Name>


>  <status>
-

>  <cas>
10118-90-8

>  <name>
MINOCYCLINE

>  <ID>
997

>  <Smiles>
CN(C)[C@H]([C@@H](C[C@@H](Cc(c(C1=O)c(cc2)O)c2N(C)C)C1=C1O)[C@@]11O)C(O)=C(C(N)=O)C1=O

$$$$

Actelion Java MolfileCreator 2.0

  0  0  0  0  0  0              0 V3000
M  V30 BEGIN CTAB
M  V30 COUNTS 27 28 0 0 0
M  V30 BEGIN ATOM
M  V30 1 S 0.866 2.9999 0.0 0
M  V30 2 C 1.732 2.5 0.0 0 CFG=2
M  V30 3 C 0.0 2.4999 0.0 0
M  V30 4 O 1.732 1.5 0.0 0
M  V30 5 C 2.598 3.0 0.0 0 CFG=1
M  V30 6 C 2.598 1.0 0.0 0 CFG=2
M  V30 7 O 2.598 4.0 0.0 0
M  V30 8 C 3.4641 2.5 0.0 0 CFG=1
M  V30 9 C 3.4641 1.5 0.0 0 CFG=2
M  V30 10 C 2.598 0.0 0.0 0 CFG=1
M  V30 11 O 4.3301 3.0 0.0 0
M  V30 12 O 4.3301 1.0 0.0 0
M  V30 13 N 1.732 -0.5 0.0 0
M  V30 14 C 3.4641 -0.5 0.0 0 CFG=1
M  V30 15 C 0.866 0.0 0.0 0
M  V30 16 O 4.3301 0.0 0.0 0
M  V30 17 C 3.4641 -1.5 0.0 0
M  V30 18 O 0.866 1.0 0.0 0
M  V30 19 C 0.0 -0.5 0.0 0 CFG=2
M  V30 20 N -0.9135 -0.0932 0.0 0
M  V30 21 C -0.1045 -1.4945 0.0 0
M  V30 22 C -1.5826 -0.8364 0.0 0
M  V30 23 C -1.1214 0.8848 0.0 0
M  V30 24 C -1.0826 -1.7024 0.0 0 CFG=1
M  V30 25 C -1.4894 -2.6159 0.0 0
M  V30 26 C -2.4839 -2.7205 0.0 0
M  V30 27 C -2.8906 -3.634 0.0 0
M  V30 END ATOM
M  V30 BEGIN BOND
M  V30 1 1 2 1 CFG=1
M  V30 2 1 1 3
M  V30 3 1 2 4
M  V30 4 1 5 2
M  V30 5 1 6 4 CFG=3
M  V30 6 1 5 7 CFG=1
M  V30 7 1 8 5
M  V30 8 1 9 6
M  V30 9 1 10 6
M  V30 10 1 8 11 CFG=3
M  V30 11 1 9 12 CFG=3
M  V30 12 1 10 13 CFG=3
M  V30 13 1 14 10
M  V30 14 1 13 15
M  V30 15 1 14 16 CFG=1
M  V30 16 1 14 17
M  V30 17 2 15 18
M  V30 18 1 19 15 CFG=1
M  V30 19 1 19 20
M  V30 20 1 19 21
M  V30 21 1 20 22
M  V30 22 1 20 23
M  V30 23 1 24 21
M  V30 24 1 24 25 CFG=3
M  V30 25 1 25 26
M  V30 26 1 26 27
M  V30 27 1 8 9
M  V30 28 1 22 24
M  V30 END BOND
M  V30 BEGIN COLLECTION
M  V30 MDLV30/STERAC1 ATOMS=(9 2 5 6 8 9 10 14 19 24)
M  V30 END COLLECTION
M  V30 END CTAB
M  END
>  <Molecule Name>


>  <status>
-

>  <cas>
154-21-2

>  <name>
LINCOMYCIN

>  <ID>
998

>  <Smiles>
CCC[C@@H](C1)CN(C)[C@H]1C(N[C@@H]([C@H](C)O)[C@@H]([C@H]([C@H]([C@@H]1O)O)O)O[C@H]1SC)=O

$$$$

Actelion Java MolfileCreator 2.0

  0  0  0  0  0  0              0 V3000
M  V30 BEGIN CTAB
M  V30 COUNTS 57 60 0 0 0
M  V30 BEGIN ATOM
M  V30 1 O 12.0876 -0.2 0.0 0
M  V30 2 C 12.0502 1.2892 0.0 0
M  V30 3 O 13.1147 1.9335 0.0 0
M  V30 4 C 10.6416 2.3874 0.0 0 CFG=1
M  V30 5 C 14.5827 1.2971 0.0 0 CFG=1
M  V30 6 C 9.1525 1.5097 0.0 0 CFG=1
M  V30 7 C 10.717 3.5729 0.0 0
M  V30 8 C 14.3825 0.0 0.0 0 CFG=1
M  V30 9 C 15.5642 2.5162 0.0 0
M  V30 10 O 7.845 2.2646 0.0 0
M  V30 11 C 9.1525 0.0 0.0 0 CFG=1
M  V30 12 C 15.69 -0.7548 0.0 0 CFG=2
M  V30 13 C 13.075 -0.4785 0.0 0
M  V30 14 C 6.5375 1.5097 0.0 0 CFG=2
M  V30 15 C 10.46 -0.7548 0.0 0 CFG=1
M  V30 16 C 7.845 -0.7548 0.0 0
M  V30 17 O 16.9975 0.0 0.0 0
M  V30 18 C 15.69 -2.2646 0.0 0 CFG=2
M  V30 19 O 5.23 2.2646 0.0 0
M  V30 20 C 6.5375 0.0 0.0 0
M  V30 21 O 11.533 -0.0438 0.0 0
M  V30 22 C 10.46 -2.2646 0.0 0 CFG=2
M  V30 23 C 18.305 -0.7548 0.0 0
M  V30 24 C 14.3825 -3.0195 0.0 0
M  V30 25 C 16.9975 -3.0195 0.0 0
M  V30 26 C 3.9225 1.5097 0.0 0 CFG=2
M  V30 27 C 5.23 -0.7548 0.0 0 CFG=1
M  V30 28 C 11.7407 1.6902 0.0 0 CFG=2
M  V30 29 C 11.7675 -3.0195 0.0 0
M  V30 30 C 9.1525 -3.0195 0.0 0
M  V30 31 O 18.305 -2.2646 0.0 0
M  V30 32 C 19.6125 0.0 0.0 0
M  V30 33 O 14.3825 -4.5293 0.0 0
M  V30 34 C 13.075 -2.2646 0.0 0 CFG=2
M  V30 35 C 3.9225 0.0 0.0 0 CFG=1
M  V30 36 C 2.615 2.2646 0.0 0
M  V30 37 O 5.23 -2.2646 0.0 0
M  V30 38 O 10.1427 2.3607 0.0 0
M  V30 39 C 13.0499 2.4738 0.0 0 CFG=2
M  V30 40 O 13.8378 -0.9787 0.0 0
M  V30 41 C 12.3201 -0.9571 0.0 0
M  V30 42 O 2.615 -0.7548 0.0 0
M  V30 43 C 6.5375 -3.0195 0.0 0
M  V30 44 C 10.2915 3.9065 0.0 0 CFG=1
M  V30 45 O 14.2598 1.5537 0.0 0
M  V30 46 C 13.075 3.7744 0.0 0 CFG=2
M  V30 47 C 1.3075 0.0 0.0 0
M  V30 48 C 11.7675 4.5293 0.0 0
M  V30 49 C 9.1525 4.5293 0.0 0
M  V30 50 C 15.8462 2.0812 0.0 0
M  V30 51 N 14.3825 4.5293 0.0 0
M  V30 52 O 1.3075 1.5097 0.0 0
M  V30 53 C 0.0 -0.7548 0.0 0
M  V30 54 O 15.998 3.5562 0.0 0
M  V30 55 C 16.9975 1.5097 0.0 0
M  V30 56 C 14.3825 6.0391 0.0 0
M  V30 57 C 15.536 3.8835 0.0 0
M  V30 END ATOM
M  V30 BEGIN BOND
M  V30 1 2 1 2
M  V30 2 1 2 3
M  V30 3 1 4 2
M  V30 4 1 5 3
M  V30 5 1 6 4
M  V30 6 1 4 7 CFG=1
M  V30 7 1 8 5
M  V30 8 1 5 9 CFG=3
M  V30 9 1 6 10 CFG=3
M  V30 10 1 11 6
M  V30 11 1 12 8
M  V30 12 1 8 13 CFG=1
M  V30 13 1 14 10 CFG=1
M  V30 14 1 15 11
M  V30 15 1 11 16 CFG=1
M  V30 16 1 12 17 CFG=3
M  V30 17 1 18 12
M  V30 18 1 14 19
M  V30 19 1 14 20
M  V30 20 1 15 21 CFG=1
M  V30 21 1 22 15
M  V30 22 1 17 23
M  V30 23 1 18 24
M  V30 24 1 18 25 CFG=1
M  V30 25 1 26 19
M  V30 26 1 27 20
M  V30 27 1 28 21 CFG=3
M  V30 28 1 22 29
M  V30 29 1 22 30 CFG=3
M  V30 30 2 23 31
M  V30 31 1 23 32
M  V30 32 2 24 33
M  V30 33 1 34 24
M  V30 34 1 35 26
M  V30 35 1 26 36 CFG=3
M  V30 36 1 27 37 CFG=3
M  V30 37 1 28 38
M  V30 38 1 39 28
M  V30 39 1 34 40 CFG=3
M  V30 40 1 34 41
M  V30 41 1 35 42 CFG=1
M  V30 42 1 37 43
M  V30 43 1 44 38
M  V30 44 1 39 45 CFG=1
M  V30 45 1 46 39
M  V30 46 1 42 47
M  V30 47 1 44 48
M  V30 48 1 44 49 CFG=3
M  V30 49 1 45 50
M  V30 50 1 46 51 CFG=3
M  V30 51 2 47 52
M  V30 52 1 47 53
M  V30 53 2 50 54
M  V30 54 1 50 55
M  V30 55 1 51 56
M  V30 56 1 51 57
M  V30 57 1 27 35
M  V30 58 1 29 34
M  V30 59 1 40 41
M  V30 60 1 46 48
M  V30 END BOND
M  V30 BEGIN COLLECTION
M  V30 MDLV30/STERAC1 ATOMS=(18 4 5 6 8 11 12 14 15 18 22 26 27 28 34 35 39 44 46)
M  V30 END COLLECTION
M  V30 END CTAB
M  END
>  <Molecule Name>


>  <status>
DISCONTINUED

>  <cas>
2751-09-9

>  <name>
TROLEANDOMYCIN

>  <ID>
999

>  <Smiles>
C[C@H](C[C@@H]([C@H]1OC(C)=O)N(C)C)O[C@H]1O[C@@H]([C@@H](C)C[C@@]1(C([C@H](C)[C@H]([C@@H](C)[C@@H](C)OC([C@@H]2C)=O)OC(C)=O)=O)OC1)[C@@H](C)[C@@H]2O[C@@H](C[C@@H]1OC)O[C@@H](C)[C@@H]1OC(C)=O

$$$$

Actelion Java MolfileCreator 2.0

  0  0  0  0  0  0              0 V3000
M  V30 BEGIN CTAB
M  V30 COUNTS 44 47 0 0 0
M  V30 BEGIN ATOM
M  V30 1 O 12.9903 -2.25 0.0 0
M  V30 2 C 12.9903 -0.75 0.0 0
M  V30 3 O 14.2894 0.0 0.0 0
M  V30 4 C 11.6913 0.0 0.0 0
M  V30 5 C 14.2894 1.5 0.0 0
M  V30 6 N 10.3923 -0.75 0.0 0
M  V30 7 C 11.6913 1.5 0.0 0
M  V30 8 C 12.9903 2.25 0.0 0
M  V30 9 C 15.5884 2.25 0.0 0
M  V30 10 C 9.0932 0.0 0.0 0
M  V30 11 O 10.3923 2.25 0.0 0
M  V30 12 C 12.9903 3.75 0.0 0
M  V30 13 C 15.5884 3.75 0.0 0
M  V30 14 C 16.8875 1.5 0.0 0
M  V30 15 O 9.0932 1.5 0.0 0
M  V30 16 C 7.7942 -0.75 0.0 0
M  V30 17 C 14.2894 4.5 0.0 0
M  V30 18 O 16.8875 4.5 0.0 0
M  V30 19 C 6.4951 0.0 0.0 0
M  V30 20 C 7.7942 -2.25 0.0 0
M  V30 21 C 16.8875 6.0 0.0 0 CFG=1
M  V30 22 C 5.1961 -0.75 0.0 0
M  V30 23 C 6.4951 -3.0 0.0 0
M  V30 24 O 18.1865 6.75 0.0 0
M  V30 25 C 15.5884 6.75 0.0 0 CFG=1
M  V30 26 C 5.1961 -2.25 0.0 0
M  V30 27 C 3.8971 0.0 0.0 0
M  V30 28 C 18.1865 8.25 0.0 0
M  V30 29 O 14.2894 6.0 0.0 0
M  V30 30 C 15.5884 8.25 0.0 0 CFG=2
M  V30 31 O 3.8971 -3.0 0.0 0
M  V30 32 C 2.598 -0.75 0.0 0
M  V30 33 C 16.8875 9.0 0.0 0 CFG=2
M  V30 34 C 19.6865 8.2499 0.0 0
M  V30 35 C 18.9365 9.549 0.0 0
M  V30 36 O 14.2894 9.0 0.0 0
M  V30 37 C 1.299 0.0 0.0 0
M  V30 38 O 16.8875 10.5 0.0 0
M  V30 39 C 12.9903 8.25 0.0 0
M  V30 40 C 1.299 1.5 0.0 0
M  V30 41 C 0.0 -0.75 0.0 0
M  V30 42 C 15.5884 11.25 0.0 0
M  V30 43 O 12.9903 6.75 0.0 0
M  V30 44 N 11.6913 9.0 0.0 0
M  V30 END ATOM
M  V30 BEGIN BOND
M  V30 1 2 1 2
M  V30 2 1 2 3
M  V30 3 1 2 4
M  V30 4 1 3 5
M  V30 5 1 4 6
M  V30 6 2 4 7
M  V30 7 2 5 8
M  V30 8 1 5 9
M  V30 9 1 6 10
M  V30 10 1 7 11
M  V30 11 1 8 12
M  V30 12 2 9 13
M  V30 13 1 9 14
M  V30 14 2 10 15
M  V30 15 1 10 16
M  V30 16 2 12 17
M  V30 17 1 13 18
M  V30 18 2 16 19
M  V30 19 1 16 20
M  V30 20 1 21 18 CFG=3
M  V30 21 1 19 22
M  V30 22 2 20 23
M  V30 23 1 21 24
M  V30 24 1 25 21
M  V30 25 2 22 26
M  V30 26 1 22 27
M  V30 27 1 24 28
M  V30 28 1 25 29 CFG=1
M  V30 29 1 30 25
M  V30 30 1 26 31
M  V30 31 1 27 32
M  V30 32 1 33 28
M  V30 33 1 28 34
M  V30 34 1 28 35
M  V30 35 1 30 36 CFG=1
M  V30 36 2 32 37
M  V30 37 1 33 38 CFG=3
M  V30 38 1 36 39
M  V30 39 1 37 40
M  V30 40 1 37 41
M  V30 41 1 38 42
M  V30 42 2 39 43
M  V30 43 1 39 44
M  V30 44 1 7 8
M  V30 45 1 13 17
M  V30 46 1 23 26
M  V30 47 1 30 33
M  V30 END BOND
M  V30 BEGIN COLLECTION
M  V30 MDLV30/STERAC1 ATOMS=(4 21 25 30 33)
M  V30 END COLLECTION
M  V30 END CTAB
M  END
>  <Molecule Name>


>  <status>
DISCONTINUED

>  <cas>
303-81-1

>  <name>
NOVOBIOCIN

>  <ID>
1000

>  <Smiles>
CC(C)([C@H]([C@@H]([C@@H]1O)OC(N)=O)OC)O[C@@H]1Oc(cc1)c(C)c(OC2=O)c1C(O)=C2NC(c(cc1)cc(CC=C(C)C)c1O)=O

$$$$

Actelion Java MolfileCreator 2.0

  0  0  0  0  0  0              0 V3000
M  V30 BEGIN CTAB
M  V30 COUNTS 23 25 0 0 0
M  V30 BEGIN ATOM
M  V30 1 O 2.598 3.0 0.0 0
M  V30 2 C 3.4641 2.5 0.0 0
M  V30 3 C 3.4641 1.4999 0.0 0 CFG=2
M  V30 4 C 4.3301 3.0 0.0 0
M  V30 5 O 2.598 1.0 0.0 0
M  V30 6 O 2.598 2.0 0.0 0
M  V30 7 C 4.3301 0.9999 0.0 0 CFG=1
M  V30 8 C 5.1961 2.4999 0.0 0 CFG=1
M  V30 9 C 2.598 0.0 0.0 0 CFG=2
M  V30 10 O 4.3301 0.0 0.0 0
M  V30 11 O 5.1961 1.4999 0.0 0
M  V30 12 C 6.0621 2.9999 0.0 0
M  V30 13 C 3.4641 -0.5 0.0 0 CFG=1
M  V30 14 C 1.732 -0.5 0.0 0 CFG=2
M  V30 15 C 3.4641 -1.4999 0.0 0 CFG=2
M  V30 16 N 0.866 0.0 0.0 0
M  V30 17 C 1.732 -1.5 0.0 0 CFG=1
M  V30 18 O 4.3301 -1.9999 0.0 0
M  V30 19 C 2.598 -1.9999 0.0 0 CFG=2
M  V30 20 C 0.0 -0.5 0.0 0
M  V30 21 O 0.866 -1.9999 0.0 0
M  V30 22 N 2.598 -3.0 0.0 0
M  V30 23 C 3.4641 -3.5 0.0 0
M  V30 END ATOM
M  V30 BEGIN BOND
M  V30 1 2 1 2
M  V30 2 1 3 2
M  V30 3 1 2 4
M  V30 4 1 3 5
M  V30 5 1 3 6 CFG=1
M  V30 6 1 7 3
M  V30 7 1 8 4
M  V30 8 1 9 5 CFG=3
M  V30 9 1 7 10 CFG=3
M  V30 10 1 7 11
M  V30 11 1 8 12 CFG=3
M  V30 12 1 13 9
M  V30 13 1 14 9
M  V30 14 1 15 13
M  V30 15 1 14 16 CFG=1
M  V30 16 1 17 14
M  V30 17 1 15 18 CFG=3
M  V30 18 1 19 15
M  V30 19 1 16 20
M  V30 20 1 17 21 CFG=1
M  V30 21 1 19 22 CFG=1
M  V30 22 1 22 23
M  V30 23 1 8 11
M  V30 24 1 13 10 CFG=1
M  V30 25 1 17 19
M  V30 END BOND
M  V30 BEGIN COLLECTION
M  V30 MDLV30/STERAC1 ATOMS=(9 3 7 8 9 13 14 15 17 19)
M  V30 END COLLECTION
M  V30 END CTAB
M  END
>  <Molecule Name>


>  <status>
DISCONTINUED

>  <cas>
1695-77-8

>  <name>
SPECTINOMYCIN

>  <ID>
1001

>  <Smiles>
C[C@@H](CC1=O)O[C@@H]2O[C@@H]([C@@H]([C@H]([C@H]([C@H]3NC)O)NC)O)[C@H]3O[C@]12O

$$$$

Actelion Java MolfileCreator 2.0

  0  0  0  0  0  0              0 V3000
M  V30 BEGIN CTAB
M  V30 COUNTS 33 36 0 0 0
M  V30 BEGIN ATOM
M  V30 1 Cl 5.1961 6.75 0.0 0
M  V30 2 C 6.4951 6.0 0.0 0
M  V30 3 C 6.4951 4.5 0.0 0
M  V30 4 C 7.7942 6.75 0.0 0
M  V30 5 C 7.7942 3.75 0.0 0
M  V30 6 C 5.1961 3.75 0.0 0 CFG=2
M  V30 7 C 9.0932 6.0 0.0 0
M  V30 8 C 7.7942 2.25 0.0 0
M  V30 9 C 9.0932 4.5 0.0 0
M  V30 10 O 4.4461 5.049 0.0 0
M  V30 11 C 5.1961 2.25 0.0 0 CFG=1
M  V30 12 C 3.6961 3.7499 0.0 0
M  V30 13 O 9.0932 1.5 0.0 0
M  V30 14 C 6.4951 1.5 0.0 0
M  V30 15 O 10.3923 3.75 0.0 0
M  V30 16 C 3.8971 1.5 0.0 0
M  V30 17 C 6.4951 0.0 0.0 0
M  V30 18 C 3.8971 0.0 0.0 0 CFG=1
M  V30 19 O 7.7942 -0.75 0.0 0
M  V30 20 C 5.1961 -0.75 0.0 0 CFG=1
M  V30 21 C 2.598 -0.75 0.0 0 CFG=1
M  V30 22 O 6.4951 -1.5 0.0 0
M  V30 23 C 5.1961 -2.25 0.0 0
M  V30 24 N 1.299 0.0 0.0 0
M  V30 25 C 2.598 -2.25 0.0 0
M  V30 26 O 6.4951 -3.0 0.0 0
M  V30 27 C 3.8971 -3.0 0.0 0
M  V30 28 C 1.299 1.5 0.0 0
M  V30 29 C 0.0 -0.75 0.0 0
M  V30 30 O 1.299 -3.0 0.0 0
M  V30 31 C 3.8971 -4.5 0.0 0
M  V30 32 O 2.598 -5.25 0.0 0
M  V30 33 N 5.1961 -5.25 0.0 0
M  V30 END ATOM
M  V30 BEGIN BOND
M  V30 1 1 1 2
M  V30 2 2 2 3
M  V30 3 1 2 4
M  V30 4 1 3 5
M  V30 5 1 6 3
M  V30 6 2 4 7
M  V30 7 1 5 8
M  V30 8 2 5 9
M  V30 9 1 6 10 CFG=1
M  V30 10 1 11 6
M  V30 11 1 6 12
M  V30 12 2 8 13
M  V30 13 1 8 14
M  V30 14 1 9 15
M  V30 15 1 11 16 CFG=1
M  V30 16 2 14 17
M  V30 17 1 18 16 CFG=1
M  V30 18 1 17 19
M  V30 19 1 20 17
M  V30 20 1 21 18
M  V30 21 1 20 22 CFG=3
M  V30 22 1 20 23
M  V30 23 1 21 24 CFG=3
M  V30 24 1 21 25
M  V30 25 2 23 26
M  V30 26 1 23 27
M  V30 27 1 24 28
M  V30 28 1 24 29
M  V30 29 1 25 30
M  V30 30 1 27 31
M  V30 31 2 31 32
M  V30 32 1 31 33
M  V30 33 1 7 9
M  V30 34 1 11 14
M  V30 35 1 18 20
M  V30 36 2 25 27
M  V30 END BOND
M  V30 BEGIN COLLECTION
M  V30 MDLV30/STERAC1 ATOMS=(5 6 11 18 20 21)
M  V30 END COLLECTION
M  V30 END CTAB
M  END
>  <Molecule Name>


>  <status>
DISCONTINUED

>  <cas>
57-62-5

>  <name>
CHLORTETRACYCLINE

>  <ID>
1002

>  <Smiles>
C[C@@]([C@H](C[C@H]([C@H](C(O)=C(C(N)=O)C1=O)N(C)C)[C@@]11O)C(C(c2c(cc3)O)=O)=C1O)(c2c3Cl)O

$$$$

Actelion Java MolfileCreator 2.0

  0  0  0  0  0  0              0 V3000
M  V30 BEGIN CTAB
M  V30 COUNTS 24 26 0 0 0
M  V30 BEGIN ATOM
M  V30 1 S 3.4641 -2.4318 0.0 0
M  V30 2 C 3.7229 -1.4659 0.0 0 CFG=2
M  V30 3 C 4.1712 -3.1389 0.0 0
M  V30 4 N 4.6888 -1.2071 0.0 0
M  V30 5 C 3.4641 -0.5 0.0 0 CFG=2
M  V30 6 C 5.1371 -2.8801 0.0 0
M  V30 7 C 5.3959 -1.9142 0.0 0
M  V30 8 C 4.43 -0.2411 0.0 0
M  V30 9 N 2.598 0.0 0.0 0
M  V30 10 C 5.8442 -3.5872 0.0 0
M  V30 11 C 6.3618 -1.6553 0.0 0
M  V30 12 O 4.93 0.6248 0.0 0
M  V30 13 C 1.732 -0.5 0.0 0
M  V30 14 O 7.0689 -2.3625 0.0 0
M  V30 15 O 6.6206 -0.6894 0.0 0 CHG=-1
M  V30 16 O 1.732 -1.5 0.0 0
M  V30 17 C 0.866 0.0 0.0 0 CFG=1
M  V30 18 N 0.866 1.0 0.0 0
M  V30 19 C 0.0 -0.5 0.0 0
M  V30 20 C -0.866 0.0 0.0 0
M  V30 21 C 0.0 -1.4999 0.0 0
M  V30 22 C -1.732 -0.4999 0.0 0
M  V30 23 C -0.866 -1.9999 0.0 0
M  V30 24 C -1.732 -1.4999 0.0 0
M  V30 END ATOM
M  V30 BEGIN BOND
M  V30 1 1 2 1 CFG=1
M  V30 2 1 1 3
M  V30 3 1 2 4
M  V30 4 1 5 2
M  V30 5 1 3 6
M  V30 6 1 4 7
M  V30 7 1 4 8
M  V30 8 1 5 9 CFG=1
M  V30 9 1 6 10
M  V30 10 1 7 11
M  V30 11 2 8 12
M  V30 12 1 9 13
M  V30 13 2 11 14
M  V30 14 1 11 15
M  V30 15 2 13 16
M  V30 16 1 17 13
M  V30 17 1 17 18 CFG=3
M  V30 18 1 17 19
M  V30 19 2 19 20
M  V30 20 1 19 21
M  V30 21 1 20 22
M  V30 22 2 21 23
M  V30 23 2 22 24
M  V30 24 1 5 8
M  V30 25 2 6 7
M  V30 26 1 23 24
M  V30 END BOND
M  V30 BEGIN COLLECTION
M  V30 MDLV30/STERAC1 ATOMS=(3 2 5 17)
M  V30 END COLLECTION
M  V30 END CTAB
M  END
>  <Molecule Name>


>  <status>
-

>  <cas>
15686-71-2

>  <name>
CEPHALEXIN

>  <ID>
1003

>  <Smiles>
CC(CS[C@H]1[C@H]2NC([C@H](c3ccccc3)N)=O)=C(C([O-])=O)N1C2=O

$$$$
rifampdb
Actelion Java MolfileCreator 2.0

  0  0  0  0  0  0              0 V3000
M  V30 BEGIN CTAB
M  V30 COUNTS 59 63 0 0 0
M  V30 BEGIN ATOM
M  V30 1 O 2.9008 -3.3261 0.0 0
M  V30 2 C 2.3763 -2.4747 0.0 0
M  V30 3 N 3.152 -1.8435 0.0 0
M  V30 4 C 1.4637 -2.8836 0.0 0
M  V30 5 C 3.4641 -0.5 0.0 0
M  V30 6 C 0.4764 -3.0423 0.0 0
M  V30 7 C 1.75 -3.8417 0.0 0
M  V30 8 C 4.3301 0.0 0.0 0
M  V30 9 C 2.598 0.0 0.0 0
M  V30 10 C -0.5183 -2.9401 0.0 0
M  V30 11 O 5.1704 -0.5421 0.0 0
M  V30 12 C 4.4618 1.3298 0.0 0
M  V30 13 C 2.598 0.9999 0.0 0
M  V30 14 C 1.732 -0.5 0.0 0
M  V30 15 C -1.3287 -2.3543 0.0 0
M  V30 16 C 5.2321 1.9675 0.0 0
M  V30 17 C 3.5244 1.678 0.0 0
M  V30 18 O 1.7062 1.4524 0.0 0
M  V30 19 N 0.866 0.0 0.0 0
M  V30 20 C -2.1917 -2.1337 0.0 0 CFG=2
M  V30 21 O 6.1695 1.6193 0.0 0
M  V30 22 C 5.0649 2.9534 0.0 0
M  V30 23 C 3.3572 2.664 0.0 0
M  V30 24 N 0.0 -0.4999 0.0 0
M  V30 25 C -2.8942 -1.2224 0.0 0 CFG=1
M  V30 26 C -2.849 -2.8085 0.0 0
M  V30 27 C 4.1275 3.3017 0.0 0
M  V30 28 C 5.8352 3.5911 0.0 0
M  V30 29 C 2.5127 3.1995 0.0 0
M  V30 30 C -0.866 0.0 0.0 0
M  V30 31 C 0.0 -1.4999 0.0 0
M  V30 32 O -3.7457 -1.7469 0.0 0
M  V30 33 C -3.3031 -0.3099 0.0 0 CFG=1
M  V30 34 O 3.7591 4.2313 0.0 0
M  V30 35 O 1.5831 2.831 0.0 0
M  V30 36 C 2.7611 4.1682 0.0 0 CFG=1
M  V30 37 C -1.732 -0.4999 0.0 0
M  V30 38 C -0.866 -1.9999 0.0 0
M  V30 39 C -3.4619 0.6774 0.0 0 CFG=2
M  V30 40 C -4.2613 -0.5961 0.0 0
M  V30 41 O 1.2526 4.5136 0.0 0
M  V30 42 C 2.8419 5.1649 0.0 0
M  V30 43 N -1.732 -1.4999 0.0 0
M  V30 44 O -4.4615 0.6488 0.0 0
M  V30 45 C -3.3597 1.6721 0.0 0 CFG=1
M  V30 46 C 0.2653 4.3548 0.0 0
M  V30 47 C -2.6875 -2.0028 0.0 0
M  V30 48 C -3.0035 2.6065 0.0 0 CFG=1
M  V30 49 C -4.3326 1.9033 0.0 0
M  V30 50 C -0.7294 4.457 0.0 0
M  V30 51 O -3.8835 3.0816 0.0 0
M  V30 52 C -2.4177 3.4169 0.0 0 CFG=2
M  V30 53 C -1.642 4.0481 0.0 0 CFG=2
M  V30 54 C -3.912 4.0812 0.0 0
M  V30 55 C -3.1141 4.054 0.0 0
M  V30 56 O -2.1665 4.8995 0.0 0
M  V30 57 O -3.0606 4.6057 0.0 0
M  V30 58 C -4.7919 4.5563 0.0 0
M  V30 59 C -1.6914 5.7794 0.0 0
M  V30 END ATOM
M  V30 BEGIN BOND
M  V30 1 2 1 2
M  V30 2 1 2 3
M  V30 3 1 2 4
M  V30 4 1 3 5
M  V30 5 2 4 6
M  V30 6 1 4 7
M  V30 7 2 5 8
M  V30 8 1 5 9
M  V30 9 1 6 10
M  V30 10 1 8 11
M  V30 11 1 8 12
M  V30 12 2 9 13
M  V30 13 1 9 14
M  V30 14 2 10 15
M  V30 15 2 12 16
M  V30 16 1 12 17
M  V30 17 1 13 18
M  V30 18 2 14 19
M  V30 19 1 20 15
M  V30 20 1 16 21
M  V30 21 1 16 22
M  V30 22 2 17 23
M  V30 23 1 19 24
M  V30 24 1 25 20
M  V30 25 1 20 26 CFG=1
M  V30 26 2 22 27
M  V30 27 1 22 28
M  V30 28 1 23 29
M  V30 29 1 24 30
M  V30 30 1 24 31
M  V30 31 1 25 32 CFG=1
M  V30 32 1 33 25
M  V30 33 1 27 34
M  V30 34 2 29 35
M  V30 35 1 36 29
M  V30 36 1 30 37
M  V30 37 1 31 38
M  V30 38 1 39 33
M  V30 39 1 33 40 CFG=3
M  V30 40 1 36 41
M  V30 41 1 36 42 CFG=1
M  V30 42 1 37 43
M  V30 43 1 39 44 CFG=3
M  V30 44 1 45 39
M  V30 45 1 41 46
M  V30 46 1 43 47
M  V30 47 1 48 45
M  V30 48 1 45 49 CFG=3
M  V30 49 2 46 50
M  V30 50 1 48 51 CFG=1
M  V30 51 1 52 48
M  V30 52 1 53 50
M  V30 53 1 51 54
M  V30 54 1 52 55 CFG=1
M  V30 55 1 53 56 CFG=3
M  V30 56 2 54 57
M  V30 57 1 54 58
M  V30 58 1 56 59
M  V30 59 1 13 17
M  V30 60 1 23 27
M  V30 61 1 34 36
M  V30 62 1 38 43
M  V30 63 1 52 53
M  V30 END BOND
M  V30 BEGIN COLLECTION
M  V30 MDLV30/STERAC1 ATOMS=(9 20 25 33 36 39 45 48 52 53)
M  V30 END COLLECTION
M  V30 END CTAB
M  END
>  <Molecule Name>
rifampdb

>  <status>
-

>  <cas>
13292-46-1

>  <name>
RIFAMPIN

>  <ID>
1004

>  <Smiles>
C[C@H]([C@@H]([C@H](C)[C@H]([C@@H](C)[C@@H](/C=C/O[C@@](C)(C(c1c2c(O)c3/C=N/N4CCN(C)CC4)=O)Oc1c(C)c(O)c2c(O)c3NC(/C(/C)=C\C=C\[C@H]1C)=O)OC)OC(C)=O)O)[C@@H]1O

$$$$

Actelion Java MolfileCreator 2.0

  0  0  0  0  0  0              0 V3000
M  V30 BEGIN CTAB
M  V30 COUNTS 28 30 0 0 0
M  V30 BEGIN ATOM
M  V30 1 S 9.0047 -1.4488 0.0 0
M  V30 2 C 7.944 -0.3882 0.0 0 CFG=2
M  V30 3 C 10.4536 -1.0606 0.0 0
M  V30 4 N 8.3323 1.0606 0.0 0
M  V30 5 C 6.4951 0.0 0.0 0 CFG=2
M  V30 6 C 10.8418 0.3882 0.0 0
M  V30 7 C 9.7811 1.4488 0.0 0
M  V30 8 C 6.8834 1.4488 0.0 0
M  V30 9 N 5.1961 -0.75 0.0 0
M  V30 10 C 12.2907 0.7764 0.0 0
M  V30 11 C 10.1694 2.8977 0.0 0
M  V30 12 O 6.1334 2.7479 0.0 0
M  V30 13 C 3.8971 0.0 0.0 0
M  V30 14 O 12.6789 2.2253 0.0 0
M  V30 15 O 11.6183 3.286 0.0 0
M  V30 16 O 9.1087 3.9584 0.0 0 CHG=-1
M  V30 17 O 3.8971 1.5 0.0 0
M  V30 18 C 2.598 -0.75 0.0 0
M  V30 19 C 14.1278 2.6135 0.0 0
M  V30 20 S 1.299 0.0 0.0 0
M  V30 21 O 15.1885 1.5529 0.0 0
M  V30 22 C 14.516 4.0624 0.0 0
M  V30 23 C 0.0 -0.75 0.0 0
M  V30 24 C -1.299 0.0 0.0 0
M  V30 25 C 0.0 -2.2499 0.0 0
M  V30 26 C -2.598 -0.7499 0.0 0
M  V30 27 C -1.299 -2.9999 0.0 0
M  V30 28 N -2.598 -2.2499 0.0 0
M  V30 END ATOM
M  V30 BEGIN BOND
M  V30 1 1 2 1 CFG=1
M  V30 2 1 1 3
M  V30 3 1 2 4
M  V30 4 1 5 2
M  V30 5 1 3 6
M  V30 6 1 4 7
M  V30 7 1 4 8
M  V30 8 1 5 9 CFG=1
M  V30 9 1 6 10
M  V30 10 1 7 11
M  V30 11 2 8 12
M  V30 12 1 9 13
M  V30 13 1 10 14
M  V30 14 2 11 15
M  V30 15 1 11 16
M  V30 16 2 13 17
M  V30 17 1 13 18
M  V30 18 1 14 19
M  V30 19 1 18 20
M  V30 20 2 19 21
M  V30 21 1 19 22
M  V30 22 1 20 23
M  V30 23 2 23 24
M  V30 24 1 23 25
M  V30 25 1 24 26
M  V30 26 2 25 27
M  V30 27 2 26 28
M  V30 28 1 5 8
M  V30 29 2 6 7
M  V30 30 1 27 28
M  V30 END BOND
M  V30 BEGIN COLLECTION
M  V30 MDLV30/STERAC1 ATOMS=(2 2 5)
M  V30 END COLLECTION
M  V30 END CTAB
M  END
>  <Molecule Name>


>  <status>
DISCONTINUED

>  <cas>
21593-23-7

>  <name>
CEPHAPIRIN

>  <ID>
1005

>  <Smiles>
CC(OCC(CS[C@H]1[C@H]2NC(CSc3ccncc3)=O)=C(C([O-])=O)N1C2=O)=O

$$$$

Actelion Java MolfileCreator 2.0

  0  0  0  0  0  0              0 V3000
M  V30 BEGIN CTAB
M  V30 COUNTS 24 27 0 0 0
M  V30 BEGIN ATOM
M  V30 1 O 5.8339 -2.8614 0.0 0
M  V30 2 C 4.8557 -2.6534 0.0 0
M  V30 3 C 4.1866 -3.3966 0.0 0
M  V30 4 C 4.5467 -1.7024 0.0 0
M  V30 5 C 3.2085 -3.1887 0.0 0
M  V30 6 C 4.4956 -4.3476 0.0 0
M  V30 7 N 5.0467 -0.8364 0.0 0
M  V30 8 C 3.5686 -1.4945 0.0 0
M  V30 9 N 2.5393 -3.9318 0.0 0
M  V30 10 C 2.8994 -2.2376 0.0 0
M  V30 11 C 4.3776 -0.0932 0.0 0 CFG=2
M  V30 12 C 5.9603 -0.4296 0.0 0
M  V30 13 C 3.4641 -0.5 0.0 0 CFG=2
M  V30 14 O 1.9213 -2.0297 0.0 0
M  V30 15 O 3.7085 0.6498 0.0 0
M  V30 16 C 4.8776 0.7727 0.0 0 CFG=2
M  V30 17 C 5.8557 0.5648 0.0 0 CFG=1
M  V30 18 C 2.598 0.0 0.0 0
M  V30 19 C 4.0175 1.6009 0.0 0
M  V30 20 N 5.5467 1.5159 0.0 0
M  V30 21 O 1.732 -0.5 0.0 0
M  V30 22 C 0.866 0.0 0.0 0
M  V30 23 O 0.866 1.0 0.0 0
M  V30 24 N 0.0 -0.5 0.0 0
M  V30 END ATOM
M  V30 BEGIN BOND
M  V30 1 2 1 2
M  V30 2 1 2 3
M  V30 3 1 2 4
M  V30 4 2 3 5
M  V30 5 1 3 6
M  V30 6 1 4 7
M  V30 7 2 4 8
M  V30 8 1 5 9
M  V30 9 1 5 10
M  V30 10 1 11 7
M  V30 11 1 7 12
M  V30 12 1 13 8
M  V30 13 2 10 14
M  V30 14 1 11 15 CFG=3
M  V30 15 1 16 11
M  V30 16 1 17 12
M  V30 17 1 13 18 CFG=1
M  V30 18 1 15 19
M  V30 19 1 16 20 CFG=1
M  V30 20 1 18 21
M  V30 21 1 21 22
M  V30 22 2 22 23
M  V30 23 1 22 24
M  V30 24 1 8 10
M  V30 25 1 11 13
M  V30 26 1 16 17
M  V30 27 1 17 20 CFG=1
M  V30 END BOND
M  V30 BEGIN COLLECTION
M  V30 MDLV30/STERAC1 ATOMS=(4 11 13 16 17)
M  V30 END COLLECTION
M  V30 END CTAB
M  END
>  <Molecule Name>


>  <status>
-

>  <cas>
50-07-7

>  <name>
MITOMYCIN

>  <ID>
1006

>  <Smiles>
CC(C(C(N(C[C@@H]1N[C@H]11)[C@]1([C@@H]1COC(N)=O)OC)=C1C1=O)=O)=C1N

$$$$

Actelion Java MolfileCreator 2.0

  0  0  0  0  0  0              0 V3000
M  V30 BEGIN CTAB
M  V30 COUNTS 25 27 0 0 0
M  V30 BEGIN ATOM
M  V30 1 S 5.5058 -3.6968 0.0 0
M  V30 2 C 6.9062 -4.2343 0.0 0
M  V30 3 C 5.5843 -2.1988 0.0 0 CFG=2
M  V30 4 C 7.8502 -3.0686 0.0 0 CFG=2
M  V30 5 C 6.518 -5.6832 0.0 0
M  V30 6 C 7.9669 -5.295 0.0 0
M  V30 7 N 7.0332 -1.8106 0.0 0
M  V30 8 C 5.1961 -0.75 0.0 0 CFG=2
M  V30 9 C 9.3481 -3.1471 0.0 0
M  V30 10 C 6.645 -0.3617 0.0 0
M  V30 11 N 3.8971 0.0 0.0 0
M  V30 12 O 10.0291 -4.4836 0.0 0
M  V30 13 O 10.1651 -1.8891 0.0 0 CHG=-1
M  V30 14 O 7.395 0.9372 0.0 0
M  V30 15 C 2.598 -0.75 0.0 0
M  V30 16 O 2.598 -2.25 0.0 0
M  V30 17 C 1.299 0.0 0.0 0 CFG=1
M  V30 18 N 1.299 1.5 0.0 0
M  V30 19 C 0.0 -0.75 0.0 0
M  V30 20 C -1.299 0.0 0.0 0
M  V30 21 C 0.0 -2.25 0.0 0
M  V30 22 C -2.598 -0.75 0.0 0
M  V30 23 C -1.299 -3.0 0.0 0
M  V30 24 C -2.598 -2.25 0.0 0
M  V30 25 O -3.8971 -3.0 0.0 0
M  V30 END ATOM
M  V30 BEGIN BOND
M  V30 1 1 1 2
M  V30 2 1 3 1 CFG=1
M  V30 3 1 4 2
M  V30 4 1 2 5
M  V30 5 1 2 6
M  V30 6 1 3 7
M  V30 7 1 8 3
M  V30 8 1 4 9 CFG=3
M  V30 9 1 7 10
M  V30 10 1 8 11 CFG=1
M  V30 11 2 9 12
M  V30 12 1 9 13
M  V30 13 2 10 14
M  V30 14 1 11 15
M  V30 15 2 15 16
M  V30 16 1 17 15
M  V30 17 1 17 18 CFG=3
M  V30 18 1 17 19
M  V30 19 2 19 20
M  V30 20 1 19 21
M  V30 21 1 20 22
M  V30 22 2 21 23
M  V30 23 2 22 24
M  V30 24 1 24 25
M  V30 25 1 4 7
M  V30 26 1 8 10
M  V30 27 1 23 24
M  V30 END BOND
M  V30 BEGIN COLLECTION
M  V30 MDLV30/STERAC1 ATOMS=(4 3 4 8 17)
M  V30 END COLLECTION
M  V30 END CTAB
M  END
>  <Molecule Name>


>  <status>
-

>  <cas>
26787-78-0

>  <name>
AMOXICILLIN

>  <ID>
1007

>  <Smiles>
CC(C)([C@H]1C([O-])=O)S[C@@H]([C@H]2NC([C@H](c(cc3)ccc3O)N)=O)N1C2=O

$$$$

Actelion Java MolfileCreator 2.0

  0  0  0  0  0  0              0 V3000
M  V30 BEGIN CTAB
M  V30 COUNTS 29 32 0 0 0
M  V30 BEGIN ATOM
M  V30 1 S 3.4641 -2.4318 0.0 0
M  V30 2 C 3.7229 -1.4659 0.0 0 CFG=2
M  V30 3 C 4.1712 -3.1389 0.0 0
M  V30 4 N 4.6888 -1.2071 0.0 0
M  V30 5 C 3.4641 -0.5 0.0 0 CFG=2
M  V30 6 C 5.1371 -2.8801 0.0 0
M  V30 7 C 5.3959 -1.9142 0.0 0
M  V30 8 C 4.43 -0.2411 0.0 0
M  V30 9 N 2.598 0.0 0.0 0
M  V30 10 C 5.8442 -3.5872 0.0 0
M  V30 11 C 6.3618 -1.6553 0.0 0
M  V30 12 O 4.93 0.6248 0.0 0
M  V30 13 C 1.732 -0.5 0.0 0
M  V30 14 S 5.5854 -4.5531 0.0 0
M  V30 15 O 7.0689 -2.3625 0.0 0
M  V30 16 O 6.6206 -0.6894 0.0 0 CHG=-1
M  V30 17 O 1.732 -1.5 0.0 0
M  V30 18 C 0.866 0.0 0.0 0
M  V30 19 C 6.2925 -5.2602 0.0 0
M  V30 20 N 0.0 -0.5 0.0 0
M  V30 21 S 6.136 -6.2479 0.0 0
M  V30 22 N 7.2802 -5.1038 0.0 0
M  V30 23 N -0.9135 -0.0932 0.0 0
M  V30 24 C -0.1045 -1.4945 0.0 0
M  V30 25 C 7.0271 -6.7019 0.0 0
M  V30 26 N 7.7342 -5.9948 0.0 0
M  V30 27 N -1.5826 -0.8364 0.0 0
M  V30 28 N -1.0826 -1.7024 0.0 0
M  V30 29 C 7.1835 -7.6896 0.0 0
M  V30 END ATOM
M  V30 BEGIN BOND
M  V30 1 1 2 1 CFG=1
M  V30 2 1 1 3
M  V30 3 1 2 4
M  V30 4 1 5 2
M  V30 5 1 3 6
M  V30 6 1 4 7
M  V30 7 1 4 8
M  V30 8 1 5 9 CFG=1
M  V30 9 1 6 10
M  V30 10 1 7 11
M  V30 11 2 8 12
M  V30 12 1 9 13
M  V30 13 1 10 14
M  V30 14 2 11 15
M  V30 15 1 11 16
M  V30 16 2 13 17
M  V30 17 1 13 18
M  V30 18 1 14 19
M  V30 19 1 18 20
M  V30 20 1 19 21
M  V30 21 2 19 22
M  V30 22 1 20 23
M  V30 23 1 20 24
M  V30 24 1 21 25
M  V30 25 1 22 26
M  V30 26 2 23 27
M  V30 27 2 24 28
M  V30 28 1 25 29
M  V30 29 1 5 8
M  V30 30 2 6 7
M  V30 31 2 25 26
M  V30 32 1 27 28
M  V30 END BOND
M  V30 BEGIN COLLECTION
M  V30 MDLV30/STERAC1 ATOMS=(2 2 5)
M  V30 END COLLECTION
M  V30 END CTAB
M  END
>  <Molecule Name>


>  <status>
-

>  <cas>
25953-19-9

>  <name>
CEFAZOLIN

>  <ID>
1008

>  <Smiles>
Cc1nnc(SCC(CS[C@H]2[C@H]3NC(Cn4nnnc4)=O)=C(C([O-])=O)N2C3=O)s1

$$$$

Actelion Java MolfileCreator 2.0

  0  0  0  0  0  0              0 V3000
M  V30 BEGIN CTAB
M  V30 COUNTS 39 43 0 0 0
M  V30 BEGIN ATOM
M  V30 1 O 2.598 -9.75 0.0 0
M  V30 2 C 1.299 -9.0 0.0 0
M  V30 3 C 1.299 -7.5 0.0 0
M  V30 4 C 0.0 -9.75 0.0 0
M  V30 5 C 2.598 -6.75 0.0 0
M  V30 6 C 0.0 -6.75 0.0 0
M  V30 7 C 0.0 -11.25 0.0 0
M  V30 8 C -1.299 -9.0 0.0 0
M  V30 9 O 3.8971 -7.5 0.0 0
M  V30 10 C 2.598 -5.2499 0.0 0
M  V30 11 C -1.299 -7.5 0.0 0
M  V30 12 C 0.0 -5.2499 0.0 0
M  V30 13 O 1.299 -12.0 0.0 0
M  V30 14 C -1.299 -11.9999 0.0 0
M  V30 15 C -2.598 -9.7499 0.0 0
M  V30 16 C 1.299 -4.5 0.0 0
M  V30 17 C 3.8971 -4.5 0.0 0 CFG=2
M  V30 18 O -2.598 -6.75 0.0 0
M  V30 19 O -1.299 -4.4999 0.0 0
M  V30 20 C 2.598 -11.25 0.0 0
M  V30 21 C -2.598 -11.25 0.0 0
M  V30 22 C 1.299 -2.9999 0.0 0
M  V30 23 O 5.1961 -5.25 0.0 0
M  V30 24 C 3.8971 -2.9999 0.0 0
M  V30 25 C 2.598 -2.25 0.0 0 CFG=2
M  V30 26 C 6.4951 -4.4999 0.0 0 CFG=1
M  V30 27 O 3.8971 -1.5 0.0 0
M  V30 28 C 2.598 -0.75 0.0 0
M  V30 29 O 7.7942 -5.2499 0.0 0
M  V30 30 C 6.4951 -2.9999 0.0 0
M  V30 31 O 3.8971 0.0 0.0 0
M  V30 32 C 1.299 0.0 0.0 0
M  V30 33 C 9.0932 -4.5 0.0 0 CFG=1
M  V30 34 C 7.7942 -2.25 0.0 0 CFG=2
M  V30 35 O 0.0 -0.75 0.0 0
M  V30 36 C 9.0932 -2.9999 0.0 0 CFG=1
M  V30 37 C 10.3923 -5.25 0.0 0
M  V30 38 N 7.7942 -0.75 0.0 0
M  V30 39 O 10.3923 -2.2499 0.0 0
M  V30 END ATOM
M  V30 BEGIN BOND
M  V30 1 2 1 2
M  V30 2 1 2 3
M  V30 3 1 2 4
M  V30 4 2 3 5
M  V30 5 1 3 6
M  V30 6 2 4 7
M  V30 7 1 4 8
M  V30 8 1 5 9
M  V30 9 1 5 10
M  V30 10 1 6 11
M  V30 11 2 6 12
M  V30 12 1 7 13
M  V30 13 1 7 14
M  V30 14 2 8 15
M  V30 15 2 10 16
M  V30 16 1 17 10
M  V30 17 2 11 18
M  V30 18 1 12 19
M  V30 19 1 13 20
M  V30 20 2 14 21
M  V30 21 1 16 22
M  V30 22 1 17 23 CFG=1
M  V30 23 1 17 24
M  V30 24 1 25 22
M  V30 25 1 26 23 CFG=3
M  V30 26 1 25 27 CFG=1
M  V30 27 1 25 28
M  V30 28 1 26 29
M  V30 29 1 26 30
M  V30 30 2 28 31
M  V30 31 1 28 32
M  V30 32 1 33 29
M  V30 33 1 34 30
M  V30 34 1 32 35
M  V30 35 1 36 33
M  V30 36 1 33 37 CFG=1
M  V30 37 1 34 38 CFG=1
M  V30 38 1 36 39 CFG=1
M  V30 39 1 8 11
M  V30 40 1 12 16
M  V30 41 1 15 21
M  V30 42 1 24 25
M  V30 43 1 34 36
M  V30 END BOND
M  V30 BEGIN COLLECTION
M  V30 MDLV30/STERAC1 ATOMS=(6 17 25 26 33 34 36)
M  V30 END COLLECTION
M  V30 END CTAB
M  END
>  <Molecule Name>


>  <status>
-

>  <cas>
23214-92-8

>  <name>
DOXORUBICIN

>  <ID>
1009

>  <Smiles>
C[C@H]([C@@H]([C@@H](C1)N)O)O[C@@H]1O[C@H](C[C@](C1)(C(CO)=O)O)c(c(O)c2C(c(c3ccc4)c4OC)=O)c1c(O)c2C3=O

$$$$

Actelion Java MolfileCreator 2.0

  0  0  0  0  0  0              0 V3000
M  V30 BEGIN CTAB
M  V30 COUNTS 26 28 0 0 0
M  V30 BEGIN ATOM
M  V30 1 S 3.4641 -2.4318 0.0 0
M  V30 2 C 3.7229 -1.4659 0.0 0 CFG=2
M  V30 3 C 4.1712 -3.1389 0.0 0
M  V30 4 N 4.6888 -1.2071 0.0 0
M  V30 5 C 3.4641 -0.5 0.0 0 CFG=2
M  V30 6 C 5.1371 -2.8801 0.0 0
M  V30 7 C 5.3959 -1.9142 0.0 0
M  V30 8 C 4.43 -0.2411 0.0 0
M  V30 9 N 2.598 0.0 0.0 0
M  V30 10 C 5.8442 -3.5872 0.0 0
M  V30 11 C 6.3618 -1.6553 0.0 0
M  V30 12 O 4.93 0.6248 0.0 0
M  V30 13 C 1.732 -0.5 0.0 0
M  V30 14 O 6.8101 -3.3284 0.0 0
M  V30 15 O 7.0689 -2.3625 0.0 0
M  V30 16 O 6.6206 -0.6894 0.0 0 CHG=-1
M  V30 17 O 1.732 -1.5 0.0 0
M  V30 18 C 0.866 0.0 0.0 0
M  V30 19 C 7.5172 -4.0355 0.0 0
M  V30 20 C 0.0 -0.5 0.0 0
M  V30 21 O 7.2584 -5.0014 0.0 0
M  V30 22 C 8.4831 -3.7767 0.0 0
M  V30 23 S -0.9135 -0.0932 0.0 0
M  V30 24 C -0.1045 -1.4945 0.0 0
M  V30 25 C -1.5826 -0.8364 0.0 0
M  V30 26 C -1.0826 -1.7024 0.0 0
M  V30 END ATOM
M  V30 BEGIN BOND
M  V30 1 1 2 1 CFG=1
M  V30 2 1 1 3
M  V30 3 1 2 4
M  V30 4 1 5 2
M  V30 5 1 3 6
M  V30 6 1 4 7
M  V30 7 1 4 8
M  V30 8 1 5 9 CFG=1
M  V30 9 1 6 10
M  V30 10 1 7 11
M  V30 11 2 8 12
M  V30 12 1 9 13
M  V30 13 1 10 14
M  V30 14 2 11 15
M  V30 15 1 11 16
M  V30 16 2 13 17
M  V30 17 1 13 18
M  V30 18 1 14 19
M  V30 19 1 18 20
M  V30 20 2 19 21
M  V30 21 1 19 22
M  V30 22 1 20 23
M  V30 23 2 20 24
M  V30 24 1 23 25
M  V30 25 1 24 26
M  V30 26 1 5 8
M  V30 27 2 6 7
M  V30 28 2 25 26
M  V30 END BOND
M  V30 BEGIN COLLECTION
M  V30 MDLV30/STERAC1 ATOMS=(2 2 5)
M  V30 END COLLECTION
M  V30 END CTAB
M  END
>  <Molecule Name>


>  <status>
DISCONTINUED

>  <cas>
153-61-7

>  <name>
CEPHALOTHIN

>  <ID>
1010

>  <Smiles>
CC(OCC(CS[C@H]1[C@H]2NC(Cc3cccs3)=O)=C(C([O-])=O)N1C2=O)=O

$$$$

Actelion Java MolfileCreator 2.0

  0  0  0  0  0  0              0 V3000
M  V30 BEGIN CTAB
M  V30 COUNTS 38 42 0 0 0
M  V30 BEGIN ATOM
M  V30 1 O 0.0 -1.4999 0.0 0
M  V30 2 C 0.866 -1.9999 0.0 0
M  V30 3 C 0.866 -2.9999 0.0 0
M  V30 4 C 1.732 -1.5 0.0 0
M  V30 5 C 0.0 -3.4999 0.0 0
M  V30 6 C 1.732 -3.5 0.0 0
M  V30 7 C 1.732 -0.5 0.0 0
M  V30 8 C 2.598 -1.9999 0.0 0
M  V30 9 O -0.866 -2.9999 0.0 0
M  V30 10 C 0.0 -4.5 0.0 0
M  V30 11 C 2.598 -3.0 0.0 0
M  V30 12 C 1.732 -4.5 0.0 0
M  V30 13 O 0.866 0.0 0.0 0
M  V30 14 C 2.598 0.0 0.0 0
M  V30 15 C 3.4641 -1.5 0.0 0
M  V30 16 C 0.866 -4.9999 0.0 0
M  V30 17 C -0.866 -5.0 0.0 0 CFG=2
M  V30 18 O 3.4641 -3.5 0.0 0
M  V30 19 O 2.598 -5.0 0.0 0
M  V30 20 C 0.0 -0.5 0.0 0
M  V30 21 C 3.4641 -0.5 0.0 0
M  V30 22 C 0.866 -5.9999 0.0 0
M  V30 23 O -1.732 -4.5 0.0 0
M  V30 24 C -0.866 -6.0 0.0 0
M  V30 25 C 0.0 -6.4999 0.0 0 CFG=2
M  V30 26 C -2.598 -5.0 0.0 0 CFG=1
M  V30 27 O -0.866 -7.0 0.0 0
M  V30 28 C 0.0 -7.4999 0.0 0
M  V30 29 O -3.4641 -4.5 0.0 0
M  V30 30 C -2.598 -6.0 0.0 0
M  V30 31 O 0.866 -8.0 0.0 0
M  V30 32 C -0.866 -7.9999 0.0 0
M  V30 33 C -4.3301 -5.0 0.0 0 CFG=1
M  V30 34 C -3.4641 -6.5 0.0 0 CFG=2
M  V30 35 C -4.3301 -6.0 0.0 0 CFG=1
M  V30 36 C -5.1961 -4.5 0.0 0
M  V30 37 N -3.4641 -7.5 0.0 0
M  V30 38 O -5.1961 -6.5 0.0 0
M  V30 END ATOM
M  V30 BEGIN BOND
M  V30 1 2 1 2
M  V30 2 1 2 3
M  V30 3 1 2 4
M  V30 4 2 3 5
M  V30 5 1 3 6
M  V30 6 2 4 7
M  V30 7 1 4 8
M  V30 8 1 5 9
M  V30 9 1 5 10
M  V30 10 1 6 11
M  V30 11 2 6 12
M  V30 12 1 7 13
M  V30 13 1 7 14
M  V30 14 2 8 15
M  V30 15 2 10 16
M  V30 16 1 17 10
M  V30 17 2 11 18
M  V30 18 1 12 19
M  V30 19 1 13 20
M  V30 20 2 14 21
M  V30 21 1 16 22
M  V30 22 1 17 23 CFG=1
M  V30 23 1 17 24
M  V30 24 1 25 22
M  V30 25 1 26 23 CFG=3
M  V30 26 1 25 27 CFG=1
M  V30 27 1 25 28
M  V30 28 1 26 29
M  V30 29 1 26 30
M  V30 30 2 28 31
M  V30 31 1 28 32
M  V30 32 1 33 29
M  V30 33 1 34 30
M  V30 34 1 35 33
M  V30 35 1 33 36 CFG=1
M  V30 36 1 34 37 CFG=1
M  V30 37 1 35 38 CFG=1
M  V30 38 1 8 11
M  V30 39 1 12 16
M  V30 40 1 15 21
M  V30 41 1 24 25
M  V30 42 1 34 35
M  V30 END BOND
M  V30 BEGIN COLLECTION
M  V30 MDLV30/STERAC1 ATOMS=(6 17 25 26 33 34 35)
M  V30 END COLLECTION
M  V30 END CTAB
M  END
>  <Molecule Name>


>  <status>
-

>  <cas>
20830-81-3

>  <name>
DAUNORUBICIN

>  <ID>
1011

>  <Smiles>
C[C@H]([C@@H]([C@@H](C1)N)O)O[C@@H]1O[C@H](C[C@](C1)(C(C)=O)O)c(c(O)c2C(c(c3ccc4)c4OC)=O)c1c(O)c2C3=O

$$$$

Actelion Java MolfileCreator 2.0

  0  0  0  0  0  0              0 V3000
M  V30 BEGIN CTAB
M  V30 COUNTS 19 21 0 0 0
M  V30 BEGIN ATOM
M  V30 1 O 1.8365 -1.4945 0.0 0
M  V30 2 C 2.8147 -1.7024 0.0 0 CFG=2
M  V30 3 C 1.732 -0.5 0.0 0 CFG=2
M  V30 4 N 3.2214 -2.6159 0.0 0
M  V30 5 C 3.3147 -0.8364 0.0 0 CFG=1
M  V30 6 C 2.6455 -0.0932 0.0 0 CFG=1
M  V30 7 C 0.866 0.0 0.0 0
M  V30 8 C 2.7214 -3.482 0.0 0
M  V30 9 C 4.1996 -2.8238 0.0 0
M  V30 10 O 4.3092 -0.7318 0.0 0
M  V30 11 O 2.8535 0.8848 0.0 0
M  V30 12 O 0.0 -0.5 0.0 0
M  V30 13 N 1.7433 -3.6899 0.0 0
M  V30 14 C 3.3905 -4.2251 0.0 0
M  V30 15 N 4.3041 -3.8184 0.0 0
M  V30 16 C 1.4342 -4.6409 0.0 0
M  V30 17 C 3.0815 -5.1762 0.0 0
M  V30 18 N 2.1034 -5.3841 0.0 0
M  V30 19 N 3.7507 -5.9193 0.0 0
M  V30 END ATOM
M  V30 BEGIN BOND
M  V30 1 1 2 1
M  V30 2 1 3 1
M  V30 3 1 2 4 CFG=1
M  V30 4 1 5 2
M  V30 5 1 6 3
M  V30 6 1 3 7 CFG=1
M  V30 7 1 4 8
M  V30 8 1 4 9
M  V30 9 1 5 10 CFG=1
M  V30 10 1 6 11 CFG=3
M  V30 11 1 7 12
M  V30 12 2 8 13
M  V30 13 1 8 14
M  V30 14 2 9 15
M  V30 15 1 13 16
M  V30 16 2 14 17
M  V30 17 2 16 18
M  V30 18 1 17 19
M  V30 19 1 5 6
M  V30 20 1 14 15
M  V30 21 1 17 18
M  V30 END BOND
M  V30 BEGIN COLLECTION
M  V30 MDLV30/STERAC1 ATOMS=(4 2 3 5 6)
M  V30 END COLLECTION
M  V30 END CTAB
M  END
>  <Molecule Name>


>  <status>
DISCONTINUED

>  <cas>
5536-17-4

>  <name>
VIDARABINE

>  <ID>
1012

>  <Smiles>
Nc1c2ncn([C@H]([C@@H]3O)O[C@@H](CO)[C@@H]3O)c2ncn1

$$$$

Actelion Java MolfileCreator 2.0

  0  0  0  0  0  0              0 V3000
M  V30 BEGIN CTAB
M  V30 COUNTS 40 42 0 0 0
M  V30 BEGIN ATOM
M  V30 1 O 3.4641 -1.5 0.0 0
M  V30 2 C 3.4641 -0.5 0.0 0
M  V30 3 N 4.3301 0.0 0.0 0
M  V30 4 C 2.598 0.0 0.0 0 CFG=1
M  V30 5 C 5.1961 -0.5 0.0 0 CFG=1
M  V30 6 O 2.598 1.0 0.0 0
M  V30 7 C 1.732 -0.5 0.0 0
M  V30 8 C 5.1961 -1.5 0.0 0 CFG=2
M  V30 9 C 6.0621 0.0 0.0 0
M  V30 10 C 0.866 0.0 0.0 0
M  V30 11 O 4.3301 -1.9999 0.0 0
M  V30 12 C 6.0621 -2.0 0.0 0 CFG=1
M  V30 13 C 6.9282 -0.5 0.0 0 CFG=1
M  V30 14 N 0.0 -0.5 0.0 0
M  V30 15 C 4.3301 -2.9999 0.0 0 CFG=1
M  V30 16 O 6.0621 -3.0 0.0 0
M  V30 17 C 6.9282 -1.5 0.0 0 CFG=1
M  V30 18 N 7.7942 0.0 0.0 0
M  V30 19 O 5.1961 -3.5 0.0 0
M  V30 20 C 3.4641 -3.4999 0.0 0 CFG=2
M  V30 21 O 7.7942 -2.0 0.0 0
M  V30 22 C 5.1961 -4.5 0.0 0 CFG=1
M  V30 23 O 2.598 -2.9999 0.0 0
M  V30 24 C 3.4641 -4.4999 0.0 0 CFG=2
M  V30 25 C 8.6602 -1.5 0.0 0 CFG=1
M  V30 26 C 4.3301 -4.9999 0.0 0 CFG=2
M  V30 27 C 6.0621 -5.0 0.0 0
M  V30 28 N 2.598 -4.9999 0.0 0
M  V30 29 O 8.6602 -0.5 0.0 0
M  V30 30 C 9.5262 -2.0 0.0 0 CFG=2
M  V30 31 O 4.3301 -5.9999 0.0 0
M  V30 32 O 6.0621 -6.0 0.0 0
M  V30 33 C 9.5262 0.0 0.0 0 CFG=1
M  V30 34 O 9.5262 -3.0 0.0 0
M  V30 35 C 10.3923 -1.4999 0.0 0 CFG=2
M  V30 36 C 10.3923 -0.5 0.0 0 CFG=2
M  V30 37 C 9.5262 1.0 0.0 0
M  V30 38 O 11.2583 -2.0 0.0 0
M  V30 39 O 11.2583 0.0 0.0 0
M  V30 40 N 10.3923 1.5 0.0 0
M  V30 END ATOM
M  V30 BEGIN BOND
M  V30 1 2 1 2
M  V30 2 1 2 3
M  V30 3 1 4 2
M  V30 4 1 5 3 CFG=3
M  V30 5 1 4 6 CFG=3
M  V30 6 1 4 7
M  V30 7 1 8 5
M  V30 8 1 5 9
M  V30 9 1 7 10
M  V30 10 1 8 11 CFG=1
M  V30 11 1 12 8
M  V30 12 1 13 9
M  V30 13 1 10 14
M  V30 14 1 15 11 CFG=1
M  V30 15 1 12 16 CFG=3
M  V30 16 1 17 12
M  V30 17 1 13 18 CFG=3
M  V30 18 1 15 19
M  V30 19 1 20 15
M  V30 20 1 17 21 CFG=1
M  V30 21 1 22 19
M  V30 22 1 20 23 CFG=1
M  V30 23 1 24 20
M  V30 24 1 25 21 CFG=1
M  V30 25 1 26 22
M  V30 26 1 22 27 CFG=3
M  V30 27 1 24 28 CFG=3
M  V30 28 1 25 29
M  V30 29 1 30 25
M  V30 30 1 26 31 CFG=1
M  V30 31 1 27 32
M  V30 32 1 33 29
M  V30 33 1 30 34 CFG=1
M  V30 34 1 35 30
M  V30 35 1 36 33
M  V30 36 1 33 37 CFG=3
M  V30 37 1 35 38 CFG=3
M  V30 38 1 36 39 CFG=1
M  V30 39 1 37 40
M  V30 40 1 13 17
M  V30 41 1 24 26
M  V30 42 1 35 36
M  V30 END BOND
M  V30 BEGIN COLLECTION
M  V30 MDLV30/STERAC1 ATOMS=(16 4 5 8 12 13 15 17 20 22 24 25 26 30 33 35 36)
M  V30 END COLLECTION
M  V30 END CTAB
M  END
>  <Molecule Name>


>  <status>
-

>  <cas>
37517-28-5

>  <name>
AMIKACIN

>  <ID>
1013

>  <Smiles>
NCC[C@@H](C(N[C@H](C[C@@H]([C@H]([C@@H]1O)O[C@H]([C@@H]([C@H]2O)O)O[C@H](CN)[C@H]2O)N)[C@@H]1O[C@H]([C@@H]([C@H]1N)O)O[C@H](CO)[C@H]1O)=O)O

$$$$

Actelion Java MolfileCreator 2.0

  0  0  0  0  0  0              0 V3000
M  V30 BEGIN CTAB
M  V30 COUNTS 25 27 0 0 0
M  V30 BEGIN ATOM
M  V30 1 S 2.6835 2.3816 0.0 0
M  V30 2 C 3.8971 1.5 0.0 0
M  V30 3 C 3.1471 3.8082 0.0 0
M  V30 4 C 5.1106 2.3816 0.0 0
M  V30 5 C 3.8971 0.0 0.0 0 CFG=2
M  V30 6 C 4.6471 3.8082 0.0 0
M  V30 7 C 5.1961 -0.75 0.0 0
M  V30 8 C 2.598 -0.75 0.0 0
M  V30 9 O 6.4952 0.0 0.0 0
M  V30 10 O 5.1961 -2.25 0.0 0 CHG=-1
M  V30 11 O 2.598 -2.25 0.0 0
M  V30 12 N 1.299 0.0 0.0 0
M  V30 13 C 0.0 -0.75 0.0 0 CFG=1
M  V30 14 C -1.4488 -0.3617 0.0 0
M  V30 15 C -0.3882 -2.1988 0.0 0 CFG=1
M  V30 16 O -2.1988 0.9372 0.0 0
M  V30 17 N -1.8371 -1.8106 0.0 0
M  V30 18 S -0.3097 -3.6968 0.0 0
M  V30 19 C -2.654 -3.0686 0.0 0 CFG=1
M  V30 20 C -1.71 -4.2343 0.0 0
M  V30 21 C -4.152 -3.1471 0.0 0
M  V30 22 C -2.7707 -5.295 0.0 0
M  V30 23 C -1.3218 -5.6832 0.0 0
M  V30 24 O -4.9689 -1.8891 0.0 0
M  V30 25 O -4.833 -4.4836 0.0 0 CHG=-1
M  V30 END ATOM
M  V30 BEGIN BOND
M  V30 1 1 1 2
M  V30 2 1 1 3
M  V30 3 2 2 4
M  V30 4 1 5 2 CFG=3
M  V30 5 2 3 6
M  V30 6 1 5 7
M  V30 7 1 5 8
M  V30 8 2 7 9
M  V30 9 1 7 10
M  V30 10 2 8 11
M  V30 11 1 8 12
M  V30 12 1 13 12 CFG=3
M  V30 13 1 13 14
M  V30 14 1 15 13
M  V30 15 2 14 16
M  V30 16 1 14 17
M  V30 17 1 15 18 CFG=3
M  V30 18 1 19 17
M  V30 19 1 18 20
M  V30 20 1 19 21 CFG=1
M  V30 21 1 20 22
M  V30 22 1 20 23
M  V30 23 2 21 24
M  V30 24 1 21 25
M  V30 25 1 4 6
M  V30 26 1 15 17
M  V30 27 1 19 20
M  V30 END BOND
M  V30 BEGIN COLLECTION
M  V30 MDLV30/STERAC1 ATOMS=(4 5 13 15 19)
M  V30 END COLLECTION
M  V30 END CTAB
M  END
>  <Molecule Name>


>  <status>
DISCONTINUED

>  <cas>
34787-01-4

>  <name>
TICARCILLIN

>  <ID>
1014

>  <Smiles>
CC(C)([C@H]1C([O-])=O)S[C@@H]([C@H]2NC([C@@H](C([O-])=O)c3cccs3)=O)N1C2=O

$$$$

Actelion Java MolfileCreator 2.0

  0  0  0  0  0  0              0 V3000
M  V30 BEGIN CTAB
M  V30 COUNTS 33 36 0 0 0
M  V30 BEGIN ATOM
M  V30 1 S 5.1961 -2.4318 0.0 0
M  V30 2 C 5.4549 -1.4659 0.0 0 CFG=2
M  V30 3 C 5.9032 -3.1389 0.0 0
M  V30 4 N 6.4208 -1.2071 0.0 0
M  V30 5 C 5.1961 -0.5 0.0 0 CFG=2
M  V30 6 C 6.8691 -2.8801 0.0 0
M  V30 7 C 7.128 -1.9142 0.0 0
M  V30 8 C 6.162 -0.2411 0.0 0
M  V30 9 N 4.3301 0.0 0.0 0
M  V30 10 C 7.5762 -3.5872 0.0 0
M  V30 11 C 8.0939 -1.6553 0.0 0
M  V30 12 O 6.662 0.6248 0.0 0
M  V30 13 C 3.4641 -0.5 0.0 0
M  V30 14 S 7.3174 -4.5531 0.0 0
M  V30 15 O 8.801 -2.3625 0.0 0
M  V30 16 O 8.3527 -0.6894 0.0 0 CHG=-1
M  V30 17 O 3.4641 -1.5 0.0 0
M  V30 18 C 2.598 0.0 0.0 0 CFG=1
M  V30 19 C 8.0245 -5.2602 0.0 0
M  V30 20 O 1.732 -0.5 0.0 0
M  V30 21 C 2.598 1.0 0.0 0
M  V30 22 N 7.8681 -6.2479 0.0 0
M  V30 23 N 9.0122 -5.1038 0.0 0
M  V30 24 C 0.866 0.0 0.0 0
M  V30 25 C 3.4641 1.5 0.0 0
M  V30 26 C 1.732 1.4999 0.0 0
M  V30 27 N 8.7591 -6.7019 0.0 0
M  V30 28 N 9.4662 -5.9948 0.0 0
M  V30 29 C 9.4662 -4.2128 0.0 0
M  V30 30 O 0.0 -0.5 0.0 0
M  V30 31 C 3.4641 2.5 0.0 0
M  V30 32 C 1.732 2.5 0.0 0
M  V30 33 C 2.598 3.0 0.0 0
M  V30 END ATOM
M  V30 BEGIN BOND
M  V30 1 1 2 1 CFG=1
M  V30 2 1 1 3
M  V30 3 1 2 4
M  V30 4 1 5 2
M  V30 5 1 3 6
M  V30 6 1 4 7
M  V30 7 1 4 8
M  V30 8 1 5 9 CFG=1
M  V30 9 1 6 10
M  V30 10 1 7 11
M  V30 11 2 8 12
M  V30 12 1 9 13
M  V30 13 1 10 14
M  V30 14 2 11 15
M  V30 15 1 11 16
M  V30 16 2 13 17
M  V30 17 1 18 13
M  V30 18 1 14 19
M  V30 19 1 18 20 CFG=1
M  V30 20 1 18 21
M  V30 21 2 19 22
M  V30 22 1 19 23
M  V30 23 1 20 24
M  V30 24 2 21 25
M  V30 25 1 21 26
M  V30 26 1 22 27
M  V30 27 1 23 28
M  V30 28 1 23 29
M  V30 29 2 24 30
M  V30 30 1 25 31
M  V30 31 2 26 32
M  V30 32 2 31 33
M  V30 33 1 5 8
M  V30 34 2 6 7
M  V30 35 2 27 28
M  V30 36 1 32 33
M  V30 END BOND
M  V30 BEGIN COLLECTION
M  V30 MDLV30/STERAC1 ATOMS=(3 2 5 18)
M  V30 END COLLECTION
M  V30 END CTAB
M  END
>  <Molecule Name>


>  <status>
DISCONTINUED

>  <cas>
42540-40-9

>  <name>
CEFAMANDOLE NAFATE

>  <ID>
1015

>  <Smiles>
Cn1nnnc1SCC(CS[C@H]1[C@H]2NC([C@H](c3ccccc3)OC=O)=O)=C(C([O-])=O)N1C2=O

$$$$

Actelion Java MolfileCreator 2.0

  0  0  0  0  0  0              0 V3000
M  V30 BEGIN CTAB
M  V30 COUNTS 23 25 0 0 0
M  V30 BEGIN ATOM
M  V30 1 S 6.604 -1.2051 0.0 0
M  V30 2 C 7.7697 -0.2612 0.0 0
M  V30 3 C 5.346 -0.3882 0.0 0 CFG=2
M  V30 4 C 7.2321 1.1391 0.0 0 CFG=2
M  V30 5 C 8.8303 -1.3218 0.0 0
M  V30 6 C 9.2185 0.127 0.0 0
M  V30 7 N 5.7342 1.0606 0.0 0
M  V30 8 C 3.8971 0.0 0.0 0 CFG=2
M  V30 9 C 8.0491 2.3971 0.0 0
M  V30 10 C 4.2853 1.4488 0.0 0
M  V30 11 N 2.598 -0.75 0.0 0
M  V30 12 O 9.547 2.3186 0.0 0
M  V30 13 O 7.3681 3.7336 0.0 0 CHG=-1
M  V30 14 O 3.5353 2.7479 0.0 0
M  V30 15 C 1.299 0.0 0.0 0
M  V30 16 O 1.299 1.5 0.0 0
M  V30 17 C 0.0 -0.75 0.0 0
M  V30 18 N 1.299 -1.5 0.0 0
M  V30 19 C -1.299 0.0 0.0 0
M  V30 20 C 0.0 -2.25 0.0 0
M  V30 21 C -2.598 -0.75 0.0 0
M  V30 22 C -1.299 -3.0 0.0 0
M  V30 23 C -2.598 -2.25 0.0 0
M  V30 END ATOM
M  V30 BEGIN BOND
M  V30 1 1 1 2
M  V30 2 1 3 1 CFG=1
M  V30 3 1 4 2
M  V30 4 1 2 5
M  V30 5 1 2 6
M  V30 6 1 3 7
M  V30 7 1 8 3
M  V30 8 1 4 9 CFG=3
M  V30 9 1 7 10
M  V30 10 1 8 11 CFG=1
M  V30 11 2 9 12
M  V30 12 1 9 13
M  V30 13 2 10 14
M  V30 14 1 11 15
M  V30 15 2 15 16
M  V30 16 1 15 17
M  V30 17 1 17 18
M  V30 18 1 17 19
M  V30 19 1 17 20
M  V30 20 1 19 21
M  V30 21 1 20 22
M  V30 22 1 21 23
M  V30 23 1 4 7
M  V30 24 1 8 10
M  V30 25 1 22 23
M  V30 END BOND
M  V30 BEGIN COLLECTION
M  V30 MDLV30/STERAC1 ATOMS=(3 3 4 8)
M  V30 END COLLECTION
M  V30 END CTAB
M  END
>  <Molecule Name>


>  <status>
DISCONTINUED

>  <cas>
3485-14-1

>  <name>
CYCLACILLIN

>  <ID>
1016

>  <Smiles>
CC(C)([C@H]1C([O-])=O)S[C@@H]([C@H]2NC(C3(CCCCC3)N)=O)N1C2=O

$$$$

Actelion Java MolfileCreator 2.0

  0  0  0  0  0  0              0 V3000
M  V30 BEGIN CTAB
M  V30 COUNTS 47 50 0 0 0
M  V30 BEGIN ATOM
M  V30 1 O 11.2583 -1.9999 0.0 0
M  V30 2 C 10.3923 -1.4999 0.0 0
M  V30 3 O 10.3923 -0.5 0.0 0
M  V30 4 C 9.5262 -1.9999 0.0 0
M  V30 5 C 11.2583 0.0 0.0 0 CFG=1
M  V30 6 C 8.6602 -1.4999 0.0 0
M  V30 7 C 11.2583 1.0 0.0 0
M  V30 8 C 12.1243 -0.4999 0.0 0
M  V30 9 C 7.7942 -1.9999 0.0 0 CFG=1
M  V30 10 C 10.3923 1.5 0.0 0
M  V30 11 O 7.7942 -0.9999 0.0 0
M  V30 12 C 6.9282 -1.4999 0.0 0 CFG=2
M  V30 13 C 9.5262 1.0 0.0 0
M  V30 14 C 6.0621 -1.9999 0.0 0
M  V30 15 C 8.6602 1.5 0.0 0
M  V30 16 C 5.1961 -1.4999 0.0 0 CFG=2
M  V30 17 C 7.7942 1.0 0.0 0
M  V30 18 O 5.1961 -0.4999 0.0 0
M  V30 19 C 4.3301 -1.9999 0.0 0
M  V30 20 C 6.9282 1.5 0.0 0
M  V30 21 C 3.4641 -1.4999 0.0 0 CFG=2
M  V30 22 C 6.0621 1.0 0.0 0
M  V30 23 O 3.4641 -0.4999 0.0 0
M  V30 24 O 3.4641 -2.4999 0.0 0
M  V30 25 C 2.598 -1.9999 0.0 0
M  V30 26 C 5.1961 1.5 0.0 0
M  V30 27 C 2.598 0.0 0.0 0 CFG=2
M  V30 28 C 1.732 -1.5 0.0 0 CFG=1
M  V30 29 C 4.3301 1.0 0.0 0
M  V30 30 C 1.732 -0.5 0.0 0 CFG=1
M  V30 31 C 2.598 1.0 0.0 0
M  V30 32 O 0.866 -1.9999 0.0 0
M  V30 33 C 3.4641 1.5 0.0 0 CFG=1
M  V30 34 C 0.866 0.0 0.0 0
M  V30 35 O 3.4641 2.5 0.0 0
M  V30 36 O 0.866 1.0 0.0 0
M  V30 37 O 0.0 -0.5 0.0 0 CHG=-1
M  V30 38 C 2.598 3.0 0.0 0 CFG=2
M  V30 39 O 2.598 4.0 0.0 0
M  V30 40 C 1.732 2.5 0.0 0 CFG=1
M  V30 41 C 1.732 4.5 0.0 0 CFG=1
M  V30 42 O 1.732 1.5 0.0 0
M  V30 43 C 0.866 3.0 0.0 0 CFG=2
M  V30 44 C 0.866 4.0 0.0 0 CFG=2
M  V30 45 C 1.732 5.5 0.0 0
M  V30 46 N 0.0 2.5 0.0 0
M  V30 47 O 0.0 4.5 0.0 0
M  V30 END ATOM
M  V30 BEGIN BOND
M  V30 1 2 1 2
M  V30 2 1 2 3
M  V30 3 1 2 4
M  V30 4 1 5 3
M  V30 5 2 4 6
M  V30 6 1 5 7
M  V30 7 1 5 8 CFG=1
M  V30 8 1 9 6
M  V30 9 1 7 10
M  V30 10 1 9 11 CFG=1
M  V30 11 1 12 9
M  V30 12 2 10 13
M  V30 13 1 12 14
M  V30 14 1 13 15
M  V30 15 1 16 14
M  V30 16 2 15 17
M  V30 17 1 16 18 CFG=1
M  V30 18 1 16 19
M  V30 19 1 17 20
M  V30 20 1 21 19
M  V30 21 2 20 22
M  V30 22 1 21 23
M  V30 23 1 21 24 CFG=1
M  V30 24 1 21 25
M  V30 25 1 22 26
M  V30 26 1 27 23 CFG=3
M  V30 27 1 28 25
M  V30 28 2 26 29
M  V30 29 1 30 27
M  V30 30 1 27 31
M  V30 31 1 28 32 CFG=3
M  V30 32 1 33 29
M  V30 33 1 30 34 CFG=1
M  V30 34 1 33 35 CFG=1
M  V30 35 2 34 36
M  V30 36 1 34 37
M  V30 37 1 38 35 CFG=1
M  V30 38 1 38 39
M  V30 39 1 40 38
M  V30 40 1 41 39
M  V30 41 1 40 42 CFG=1
M  V30 42 1 43 40
M  V30 43 1 44 41
M  V30 44 1 41 45 CFG=1
M  V30 45 1 43 46 CFG=1
M  V30 46 1 44 47 CFG=3
M  V30 47 1 12 11 CFG=1
M  V30 48 1 28 30
M  V30 49 1 31 33
M  V30 50 1 43 44
M  V30 END BOND
M  V30 BEGIN COLLECTION
M  V30 MDLV30/STERAC1 ATOMS=(14 5 9 12 16 21 27 28 30 33 38 40 41 43 44)
M  V30 END COLLECTION
M  V30 END CTAB
M  END
>  <Molecule Name>


>  <status>
-

>  <cas>
7681-93-8

>  <name>
NATAMYCIN

>  <ID>
1017

>  <Smiles>
C[C@H]([C@H]([C@@H]([C@@H]1O)N)O)O[C@H]1O[C@H](C[C@@H]([C@@H]([C@H](C1)O)C([O-])=O)O[C@@]1(C[C@H](C[C@H]1O[C@@H]1/C=C1)O)O)/C=C/C=C/C=C/C=C/C[C@@H](C)OC1=O

$$$$

Actelion Java MolfileCreator 2.0

  0  0  0  0  0  0              0 V3000
M  V30 BEGIN CTAB
M  V30 COUNTS 28 30 0 0 0
M  V30 BEGIN ATOM
M  V30 1 S -2.5095 0.6988 0.0 0
M  V30 2 C -1.4488 -0.3617 0.0 0 CFG=2
M  V30 3 C -3.9584 0.3106 0.0 0
M  V30 4 N -1.8371 -1.8106 0.0 0
M  V30 5 C 0.0 -0.75 0.0 0 CFG=1
M  V30 6 C -4.3466 -1.1382 0.0 0
M  V30 7 C -3.286 -2.1988 0.0 0
M  V30 8 C -0.3882 -2.1988 0.0 0
M  V30 9 O 1.19 -1.6631 0.0 0
M  V30 10 N 1.299 0.0 0.0 0
M  V30 11 C -5.7955 -1.5264 0.0 0
M  V30 12 C -3.6742 -3.6477 0.0 0
M  V30 13 O 0.3617 -3.4979 0.0 0
M  V30 14 C 2.5758 -1.0891 0.0 0
M  V30 15 C 1.299 1.4999 0.0 0
M  V30 16 O -6.1837 -2.9753 0.0 0
M  V30 17 O -5.1231 -4.036 0.0 0
M  V30 18 O -2.6135 -4.7084 0.0 0 CHG=-1
M  V30 19 O 0.0 2.25 0.0 0
M  V30 20 C 2.598 2.2499 0.0 0
M  V30 21 C -7.6326 -3.3635 0.0 0
M  V30 22 C 2.598 3.75 0.0 0
M  V30 23 O -8.6933 -2.3029 0.0 0
M  V30 24 N -8.0209 -4.8124 0.0 0
M  V30 25 S 1.3845 4.6316 0.0 0
M  V30 26 C 3.8116 4.6316 0.0 0
M  V30 27 C 1.848 6.0582 0.0 0
M  V30 28 C 3.348 6.0582 0.0 0
M  V30 END ATOM
M  V30 BEGIN BOND
M  V30 1 1 2 1 CFG=1
M  V30 2 1 1 3
M  V30 3 1 2 4
M  V30 4 1 5 2
M  V30 5 1 3 6
M  V30 6 1 4 7
M  V30 7 1 4 8
M  V30 8 1 5 9 CFG=3
M  V30 9 1 5 10
M  V30 10 1 6 11
M  V30 11 1 7 12
M  V30 12 2 8 13
M  V30 13 1 9 14
M  V30 14 1 10 15
M  V30 15 1 11 16
M  V30 16 2 12 17
M  V30 17 1 12 18
M  V30 18 2 15 19
M  V30 19 1 15 20
M  V30 20 1 16 21
M  V30 21 1 20 22
M  V30 22 2 21 23
M  V30 23 1 21 24
M  V30 24 1 22 25
M  V30 25 2 22 26
M  V30 26 1 25 27
M  V30 27 1 26 28
M  V30 28 1 5 8
M  V30 29 2 6 7
M  V30 30 2 27 28
M  V30 END BOND
M  V30 BEGIN COLLECTION
M  V30 MDLV30/STERAC1 ATOMS=(2 2 5)
M  V30 END COLLECTION
M  V30 END CTAB
M  END
>  <Molecule Name>


>  <status>
-

>  <cas>
35607-66-0

>  <name>
CEFOXITIN

>  <ID>
1018

>  <Smiles>
CO[C@@]([C@@H]1SCC(COC(N)=O)=C(C([O-])=O)N11)(C1=O)NC(Cc1cccs1)=O

$$$$

Actelion Java MolfileCreator 2.0

  0  0  0  0  0  0              0 V3000
M  V30 BEGIN CTAB
M  V30 COUNTS 33 36 0 0 0
M  V30 BEGIN ATOM
M  V30 1 Cl 3.4641 4.5 0.0 0
M  V30 2 C 4.3301 4.0 0.0 0
M  V30 3 C 4.3301 3.0 0.0 0
M  V30 4 C 5.1961 4.5 0.0 0
M  V30 5 C 5.1961 2.4999 0.0 0
M  V30 6 C 3.4641 2.4999 0.0 0
M  V30 7 C 6.0621 4.0 0.0 0
M  V30 8 C 5.1961 1.5 0.0 0
M  V30 9 C 6.0621 3.0 0.0 0
M  V30 10 C 2.598 2.9999 0.0 0
M  V30 11 C 3.4641 1.4999 0.0 0 CFG=1
M  V30 12 O 6.0621 1.0 0.0 0
M  V30 13 C 4.3301 1.0 0.0 0
M  V30 14 O 6.9282 2.5 0.0 0
M  V30 15 C 2.598 0.9999 0.0 0 CFG=1
M  V30 16 C 4.3301 0.0 0.0 0
M  V30 17 O 1.732 1.4999 0.0 0
M  V30 18 C 2.598 0.0 0.0 0 CFG=1
M  V30 19 O 5.1961 -0.4999 0.0 0
M  V30 20 C 3.4641 -0.5 0.0 0 CFG=1
M  V30 21 C 1.732 -0.5 0.0 0 CFG=1
M  V30 22 O 4.3301 -1.0 0.0 0
M  V30 23 C 3.4641 -1.5 0.0 0
M  V30 24 N 0.866 0.0 0.0 0
M  V30 25 C 1.732 -1.5 0.0 0
M  V30 26 O 4.3301 -1.9999 0.0 0
M  V30 27 C 2.598 -2.0 0.0 0
M  V30 28 C 0.866 1.0 0.0 0
M  V30 29 C 0.0 -0.5 0.0 0
M  V30 30 O 0.866 -2.0 0.0 0
M  V30 31 C 2.598 -3.0 0.0 0
M  V30 32 O 1.732 -3.5 0.0 0
M  V30 33 N 3.4641 -3.5 0.0 0
M  V30 END ATOM
M  V30 BEGIN BOND
M  V30 1 1 1 2
M  V30 2 2 2 3
M  V30 3 1 2 4
M  V30 4 1 3 5
M  V30 5 1 3 6
M  V30 6 2 4 7
M  V30 7 1 5 8
M  V30 8 2 5 9
M  V30 9 2 6 10
M  V30 10 1 11 6 CFG=1
M  V30 11 2 8 12
M  V30 12 1 8 13
M  V30 13 1 9 14
M  V30 14 1 15 11
M  V30 15 2 13 16
M  V30 16 1 15 17 CFG=3
M  V30 17 1 18 15 CFG=1
M  V30 18 1 16 19
M  V30 19 1 20 16
M  V30 20 1 21 18
M  V30 21 1 20 22 CFG=3
M  V30 22 1 20 23
M  V30 23 1 21 24 CFG=3
M  V30 24 1 21 25
M  V30 25 2 23 26
M  V30 26 1 23 27
M  V30 27 1 24 28
M  V30 28 1 24 29
M  V30 29 1 25 30
M  V30 30 1 27 31
M  V30 31 2 31 32
M  V30 32 1 31 33
M  V30 33 1 7 9
M  V30 34 1 11 13
M  V30 35 1 18 20
M  V30 36 2 25 27
M  V30 END BOND
M  V30 BEGIN COLLECTION
M  V30 MDLV30/STERAC1 ATOMS=(5 11 15 18 20 21)
M  V30 END COLLECTION
M  V30 END CTAB
M  END
>  <Molecule Name>


>  <status>
DISCONTINUED

>  <cas>
2013-58-3

>  <name>
MECLOCYCLINE

>  <ID>
1019

>  <Smiles>
CN(C)[C@H]([C@@H]([C@@H]([C@@H](C(c(c(C1=O)c(cc2)O)c2Cl)=C)C1=C1O)O)[C@@]11O)C(O)=C(C(N)=O)C1=O

$$$$

Actelion Java MolfileCreator 2.0

  0  0  0  0  0  0              0 V3000
M  V30 BEGIN CTAB
M  V30 COUNTS 32 34 0 0 0
M  V30 BEGIN ATOM
M  V30 1 S 12.7663 -1.2546 0.0 0
M  V30 2 C 11.7626 -0.1398 0.0 0
M  V30 3 C 12.0163 -2.5536 0.0 0 CFG=2
M  V30 4 C 10.3923 -0.75 0.0 0 CFG=2
M  V30 5 C 12.7663 0.9747 0.0 0
M  V30 6 C 11.2991 1.2866 0.0 0
M  V30 7 N 10.5491 -2.2417 0.0 0
M  V30 8 C 11.7044 -4.0208 0.0 0 CFG=2
M  V30 9 C 9.0932 0.0 0.0 0
M  V30 10 C 10.2372 -3.709 0.0 0
M  V30 11 N 12.5214 -5.2788 0.0 0
M  V30 12 O 9.0932 1.5 0.0 0
M  V30 13 O 7.7942 -0.75 0.0 0
M  V30 14 O 8.9792 -4.5259 0.0 0
M  V30 15 C 14.0193 -5.2003 0.0 0
M  V30 16 C 6.4951 0.0 0.0 0 CFG=1
M  V30 17 O 14.7003 -3.8638 0.0 0
M  V30 18 C 14.8363 -6.4583 0.0 0 CFG=1
M  V30 19 O 5.1961 -0.75 0.0 0
M  V30 20 C 6.4951 1.5 0.0 0
M  V30 21 N 14.1553 -7.7948 0.0 0
M  V30 22 C 16.3342 -6.3798 0.0 0
M  V30 23 C 3.8971 0.0 0.0 0
M  V30 24 C 17.1512 -7.6378 0.0 0
M  V30 25 C 17.0152 -5.0433 0.0 0
M  V30 26 O 3.8971 1.5 0.0 0
M  V30 27 O 2.598 -0.75 0.0 0
M  V30 28 C 18.6491 -7.5593 0.0 0
M  V30 29 C 18.5132 -4.9648 0.0 0
M  V30 30 C 1.299 0.0 0.0 0
M  V30 31 C 19.3301 -6.2228 0.0 0
M  V30 32 C 0.0 -0.75 0.0 0
M  V30 END ATOM
M  V30 BEGIN BOND
M  V30 1 1 1 2
M  V30 2 1 3 1 CFG=1
M  V30 3 1 4 2
M  V30 4 1 2 5
M  V30 5 1 2 6
M  V30 6 1 3 7
M  V30 7 1 8 3
M  V30 8 1 4 9 CFG=3
M  V30 9 1 7 10
M  V30 10 1 8 11 CFG=1
M  V30 11 2 9 12
M  V30 12 1 9 13
M  V30 13 2 10 14
M  V30 14 1 11 15
M  V30 15 1 16 13 CFG=1
M  V30 16 2 15 17
M  V30 17 1 18 15
M  V30 18 1 16 19
M  V30 19 1 16 20
M  V30 20 1 18 21 CFG=3
M  V30 21 1 18 22
M  V30 22 1 19 23
M  V30 23 2 22 24
M  V30 24 1 22 25
M  V30 25 2 23 26
M  V30 26 1 23 27
M  V30 27 1 24 28
M  V30 28 2 25 29
M  V30 29 1 27 30
M  V30 30 2 28 31
M  V30 31 1 30 32
M  V30 32 1 4 7
M  V30 33 1 8 10
M  V30 34 1 29 31
M  V30 END BOND
M  V30 BEGIN COLLECTION
M  V30 MDLV30/STERAC1 ATOMS=(5 3 4 8 16 18)
M  V30 END COLLECTION
M  V30 END CTAB
M  END
>  <Molecule Name>


>  <status>
DISCONTINUED

>  <cas>
50972-17-3

>  <name>
BACAMPICILLIN

>  <ID>
1020

>  <Smiles>
CCOC(O[C@@H](C)OC([C@H](C(C)(C)S[C@H]1[C@H]2NC([C@H](c3ccccc3)N)=O)N1C2=O)=O)=O

$$$$

Actelion Java MolfileCreator 2.0

  0  0  0  0  0  0              0 V3000
M  V30 BEGIN CTAB
M  V30 COUNTS 24 26 0 0 0
M  V30 BEGIN ATOM
M  V30 1 Cl 5.8442 -3.5872 0.0 0
M  V30 2 C 5.1371 -2.8801 0.0 0
M  V30 3 C 5.3959 -1.9142 0.0 0
M  V30 4 C 4.1712 -3.1389 0.0 0
M  V30 5 N 4.6888 -1.2071 0.0 0
M  V30 6 C 6.3618 -1.6553 0.0 0
M  V30 7 S 3.4641 -2.4318 0.0 0
M  V30 8 C 4.43 -0.2411 0.0 0
M  V30 9 C 3.7229 -1.4659 0.0 0 CFG=1
M  V30 10 O 7.0689 -2.3625 0.0 0
M  V30 11 O 6.6206 -0.6894 0.0 0 CHG=-1
M  V30 12 O 4.93 0.6248 0.0 0
M  V30 13 C 3.4641 -0.5 0.0 0 CFG=1
M  V30 14 N 2.598 0.0 0.0 0
M  V30 15 C 1.732 -0.5 0.0 0
M  V30 16 O 1.732 -1.5 0.0 0
M  V30 17 C 0.866 0.0 0.0 0 CFG=1
M  V30 18 N 0.866 1.0 0.0 0
M  V30 19 C 0.0 -0.5 0.0 0
M  V30 20 C -0.866 0.0 0.0 0
M  V30 21 C 0.0 -1.4999 0.0 0
M  V30 22 C -1.732 -0.4999 0.0 0
M  V30 23 C -0.866 -1.9999 0.0 0
M  V30 24 C -1.732 -1.4999 0.0 0
M  V30 END ATOM
M  V30 BEGIN BOND
M  V30 1 1 1 2
M  V30 2 2 2 3
M  V30 3 1 2 4
M  V30 4 1 3 5
M  V30 5 1 3 6
M  V30 6 1 4 7
M  V30 7 1 5 8
M  V30 8 1 9 5
M  V30 9 2 6 10
M  V30 10 1 6 11
M  V30 11 2 8 12
M  V30 12 1 13 8
M  V30 13 1 13 14 CFG=1
M  V30 14 1 14 15
M  V30 15 2 15 16
M  V30 16 1 17 15
M  V30 17 1 17 18 CFG=3
M  V30 18 1 17 19
M  V30 19 2 19 20
M  V30 20 1 19 21
M  V30 21 1 20 22
M  V30 22 2 21 23
M  V30 23 2 22 24
M  V30 24 1 9 7 CFG=1
M  V30 25 1 9 13
M  V30 26 1 23 24
M  V30 END BOND
M  V30 BEGIN COLLECTION
M  V30 MDLV30/STERAC1 ATOMS=(3 9 13 17)
M  V30 END COLLECTION
M  V30 END CTAB
M  END
>  <Molecule Name>


>  <status>
-

>  <cas>
53994-73-3

>  <name>
CEFACLOR

>  <ID>
1021

>  <Smiles>
N[C@H](C(N[C@H]([C@@H]1SCC(Cl)=C(C([O-])=O)N11)C1=O)=O)c1ccccc1

$$$$

Actelion Java MolfileCreator 2.0

  0  0  0  0  0  0              0 V3000
M  V30 BEGIN CTAB
M  V30 COUNTS 24 26 0 0 0
M  V30 BEGIN ATOM
M  V30 1 S 3.4641 -2.4318 0.0 0
M  V30 2 C 3.7229 -1.4659 0.0 0 CFG=2
M  V30 3 C 4.1712 -3.1389 0.0 0
M  V30 4 N 4.6888 -1.2071 0.0 0
M  V30 5 C 3.4641 -0.5 0.0 0 CFG=2
M  V30 6 C 5.1371 -2.8801 0.0 0
M  V30 7 C 5.3959 -1.9142 0.0 0
M  V30 8 C 4.43 -0.2411 0.0 0
M  V30 9 N 2.598 0.0 0.0 0
M  V30 10 C 5.8442 -3.5872 0.0 0
M  V30 11 C 6.3618 -1.6553 0.0 0
M  V30 12 O 4.93 0.6248 0.0 0
M  V30 13 C 1.732 -0.5 0.0 0
M  V30 14 O 7.0689 -2.3625 0.0 0
M  V30 15 O 6.6206 -0.6894 0.0 0 CHG=-1
M  V30 16 O 1.732 -1.5 0.0 0
M  V30 17 C 0.866 0.0 0.0 0 CFG=1
M  V30 18 N 0.866 1.0 0.0 0
M  V30 19 C 0.0 -0.5 0.0 0
M  V30 20 C -0.866 0.0 0.0 0
M  V30 21 C 0.0 -1.4999 0.0 0
M  V30 22 C -1.732 -0.4999 0.0 0
M  V30 23 C -0.866 -1.9999 0.0 0
M  V30 24 C -1.732 -1.4999 0.0 0
M  V30 END ATOM
M  V30 BEGIN BOND
M  V30 1 1 2 1 CFG=1
M  V30 2 1 1 3
M  V30 3 1 2 4
M  V30 4 1 5 2
M  V30 5 1 3 6
M  V30 6 1 4 7
M  V30 7 1 4 8
M  V30 8 1 5 9 CFG=1
M  V30 9 1 6 10
M  V30 10 1 7 11
M  V30 11 2 8 12
M  V30 12 1 9 13
M  V30 13 2 11 14
M  V30 14 1 11 15
M  V30 15 2 13 16
M  V30 16 1 17 13
M  V30 17 1 17 18 CFG=3
M  V30 18 1 17 19
M  V30 19 2 19 20
M  V30 20 1 19 21
M  V30 21 1 20 22
M  V30 22 1 21 23
M  V30 23 1 22 24
M  V30 24 1 5 8
M  V30 25 2 6 7
M  V30 26 2 23 24
M  V30 END BOND
M  V30 BEGIN COLLECTION
M  V30 MDLV30/STERAC1 ATOMS=(3 2 5 17)
M  V30 END COLLECTION
M  V30 END CTAB
M  END
>  <Molecule Name>


>  <status>
DISCONTINUED

>  <cas>
38821-53-3

>  <name>
CEPHRADINE

>  <ID>
1022

>  <Smiles>
CC(CS[C@H]1[C@H]2NC([C@H](C3=CCC=CC3)N)=O)=C(C([O-])=O)N1C2=O

$$$$
_c001
Actelion Java MolfileCreator 2.0

  0  0  0  0  0  0              0 V3000
M  V30 BEGIN CTAB
M  V30 COUNTS 33 35 0 0 0
M  V30 BEGIN ATOM
M  V30 1 O 9.0932 0.0 0.0 0
M  V30 2 C 10.3923 -0.75 0.0 0
M  V30 3 C 9.0932 1.5 0.0 0 CFG=2
M  V30 4 C 11.6913 0.0 0.0 0
M  V30 5 C 10.3923 -2.25 0.0 0
M  V30 6 O 7.7942 2.25 0.0 0
M  V30 7 C 10.3923 2.25 0.0 0 CFG=1
M  V30 8 C 11.6913 1.5 0.0 0
M  V30 9 N 11.6913 -3.0 0.0 0
M  V30 10 C 6.4951 1.5 0.0 0 CFG=1
M  V30 11 N 10.3923 3.75 0.0 0
M  V30 12 C 5.1961 2.25 0.0 0 CFG=2
M  V30 13 C 6.4951 0.0 0.0 0 CFG=1
M  V30 14 O 5.1961 3.75 0.0 0
M  V30 15 C 3.8971 1.5 0.0 0 CFG=1
M  V30 16 N 7.7942 -0.75 0.0 0
M  V30 17 C 5.1961 -0.75 0.0 0
M  V30 18 O 2.598 2.25 0.0 0
M  V30 19 C 3.8971 0.0 0.0 0 CFG=1
M  V30 20 C 2.598 3.75 0.0 0 CFG=1
M  V30 21 N 2.598 -0.75 0.0 0
M  V30 22 O 3.8971 4.5 0.0 0
M  V30 23 C 1.299 4.5 0.0 0 CFG=2
M  V30 24 C 1.299 0.0 0.0 0
M  V30 25 C 3.8971 6.0 0.0 0
M  V30 26 O 0.0 3.75 0.0 0
M  V30 27 C 1.299 6.0 0.0 0 CFG=2
M  V30 28 C 0.0 -0.75 0.0 0
M  V30 29 C 2.598 6.75 0.0 0 CFG=1
M  V30 30 N 0.0 6.75 0.0 0
M  V30 31 O 3.348 8.049 0.0 0
M  V30 32 C 1.848 8.049 0.0 0
M  V30 33 C -1.299 6.0 0.0 0
M  V30 END ATOM
M  V30 BEGIN BOND
M  V30 1 1 1 2
M  V30 2 1 3 1
M  V30 3 2 2 4
M  V30 4 1 2 5
M  V30 5 1 3 6 CFG=3
M  V30 6 1 7 3
M  V30 7 1 4 8
M  V30 8 1 5 9
M  V30 9 1 10 6 CFG=3
M  V30 10 1 7 11 CFG=3
M  V30 11 1 12 10
M  V30 12 1 13 10
M  V30 13 1 12 14 CFG=1
M  V30 14 1 15 12
M  V30 15 1 13 16 CFG=1
M  V30 16 1 13 17
M  V30 17 1 15 18 CFG=3
M  V30 18 1 19 15
M  V30 19 1 20 18 CFG=3
M  V30 20 1 19 21 CFG=1
M  V30 21 1 20 22
M  V30 22 1 23 20
M  V30 23 1 21 24
M  V30 24 1 22 25
M  V30 25 1 23 26 CFG=3
M  V30 26 1 27 23
M  V30 27 1 24 28
M  V30 28 1 29 25
M  V30 29 1 27 30 CFG=1
M  V30 30 1 29 31 CFG=1
M  V30 31 1 29 32
M  V30 32 1 30 33
M  V30 33 1 7 8
M  V30 34 1 17 19
M  V30 35 1 27 29
M  V30 END BOND
M  V30 BEGIN COLLECTION
M  V30 MDLV30/STERAC1 ATOMS=(11 3 7 10 12 13 15 19 20 23 27 29)
M  V30 END COLLECTION
M  V30 END CTAB
M  END
>  <Molecule Name>
_c001

>  <status>
DISCONTINUED

>  <cas>
56391-56-1

>  <name>
NETILMICIN

>  <ID>
1023

>  <Smiles>
CCN[C@H](C[C@@H]([C@H]([C@@H]1O)O[C@H]2OC(CN)=CC[C@H]2N)N)[C@@H]1O[C@H]([C@@H]([C@H]1NC)O)OC[C@]1(C)O

$$$$

Actelion Java MolfileCreator 2.0

  0  0  0  0  0  0              0 V3000
M  V30 BEGIN CTAB
M  V30 COUNTS 36 39 0 0 0
M  V30 BEGIN ATOM
M  V30 1 S 8.1039 -3.6968 0.0 0
M  V30 2 C 9.5043 -4.2343 0.0 0
M  V30 3 C 8.1824 -2.1988 0.0 0 CFG=2
M  V30 4 C 10.4483 -3.0686 0.0 0 CFG=2
M  V30 5 C 9.116 -5.6832 0.0 0
M  V30 6 C 10.5649 -5.295 0.0 0
M  V30 7 N 9.6313 -1.8106 0.0 0
M  V30 8 C 7.7942 -0.75 0.0 0 CFG=2
M  V30 9 C 11.9462 -3.1471 0.0 0
M  V30 10 C 9.2431 -0.3617 0.0 0
M  V30 11 N 6.4951 0.0 0.0 0
M  V30 12 O 12.6272 -4.4836 0.0 0
M  V30 13 O 12.7632 -1.8891 0.0 0 CHG=-1
M  V30 14 O 9.9931 0.9372 0.0 0
M  V30 15 C 5.1961 -0.75 0.0 0
M  V30 16 O 5.1961 -2.25 0.0 0
M  V30 17 C 3.8971 0.0 0.0 0 CFG=1
M  V30 18 N 2.598 -0.75 0.0 0
M  V30 19 C 3.8971 1.5 0.0 0
M  V30 20 C 1.299 0.0 0.0 0
M  V30 21 C 5.1961 2.25 0.0 0
M  V30 22 C 2.598 2.25 0.0 0
M  V30 23 O 1.299 1.5 0.0 0
M  V30 24 N 0.0 -0.75 0.0 0
M  V30 25 C 5.1961 3.75 0.0 0
M  V30 26 C 2.598 3.75 0.0 0
M  V30 27 C -1.299 0.0 0.0 0
M  V30 28 C 0.0 -2.25 0.0 0
M  V30 29 C 3.8971 4.5 0.0 0
M  V30 30 O -1.299 1.5 0.0 0
M  V30 31 C -2.598 -0.75 0.0 0
M  V30 32 C -1.299 -3.0 0.0 0
M  V30 33 O -3.8971 0.0 0.0 0
M  V30 34 N -2.598 -2.25 0.0 0
M  V30 35 C -3.8971 -3.0 0.0 0
M  V30 36 C -3.8971 -4.5 0.0 0
M  V30 END ATOM
M  V30 BEGIN BOND
M  V30 1 1 1 2
M  V30 2 1 3 1 CFG=1
M  V30 3 1 4 2
M  V30 4 1 2 5
M  V30 5 1 2 6
M  V30 6 1 3 7
M  V30 7 1 8 3
M  V30 8 1 4 9 CFG=3
M  V30 9 1 7 10
M  V30 10 1 8 11 CFG=1
M  V30 11 2 9 12
M  V30 12 1 9 13
M  V30 13 2 10 14
M  V30 14 1 11 15
M  V30 15 2 15 16
M  V30 16 1 17 15
M  V30 17 1 17 18 CFG=1
M  V30 18 1 17 19
M  V30 19 1 18 20
M  V30 20 2 19 21
M  V30 21 1 19 22
M  V30 22 2 20 23
M  V30 23 1 20 24
M  V30 24 1 21 25
M  V30 25 2 22 26
M  V30 26 1 24 27
M  V30 27 1 24 28
M  V30 28 2 25 29
M  V30 29 2 27 30
M  V30 30 1 27 31
M  V30 31 1 28 32
M  V30 32 2 31 33
M  V30 33 1 31 34
M  V30 34 1 34 35
M  V30 35 1 35 36
M  V30 36 1 4 7
M  V30 37 1 8 10
M  V30 38 1 26 29
M  V30 39 1 32 34
M  V30 END BOND
M  V30 BEGIN COLLECTION
M  V30 MDLV30/STERAC1 ATOMS=(4 3 4 8 17)
M  V30 END COLLECTION
M  V30 END CTAB
M  END
>  <Molecule Name>


>  <status>
-

>  <cas>
61477-96-1

>  <name>
PIPERACILLIN

>  <ID>
1024

>  <Smiles>
CCN(CCN(C(N[C@H](C(N[C@H]([C@@H]1SC(C)(C)[C@@H](C([O-])=O)N11)C1=O)=O)c1ccccc1)=O)C1=O)C1=O

$$$$

Actelion Java MolfileCreator 2.0

  0  0  0  0  0  0              0 V3000
M  V30 BEGIN CTAB
M  V30 COUNTS 30 32 0 0 0
M  V30 BEGIN ATOM
M  V30 1 S 5.1961 -2.4318 0.0 0
M  V30 2 C 5.4549 -1.4659 0.0 0 CFG=2
M  V30 3 C 5.9032 -3.1389 0.0 0
M  V30 4 N 6.4208 -1.2071 0.0 0
M  V30 5 C 5.1961 -0.5 0.0 0 CFG=2
M  V30 6 C 6.8691 -2.8801 0.0 0
M  V30 7 C 7.128 -1.9142 0.0 0
M  V30 8 C 6.162 -0.2411 0.0 0
M  V30 9 N 4.3301 0.0 0.0 0
M  V30 10 C 7.5762 -3.5872 0.0 0
M  V30 11 C 8.0939 -1.6553 0.0 0
M  V30 12 O 6.662 0.6248 0.0 0
M  V30 13 C 3.4641 -0.5 0.0 0
M  V30 14 O 8.5422 -3.3284 0.0 0
M  V30 15 O 8.801 -2.3625 0.0 0
M  V30 16 O 8.3527 -0.6894 0.0 0 CHG=-1
M  V30 17 O 3.4641 -1.5 0.0 0
M  V30 18 C 2.598 0.0 0.0 0
M  V30 19 C 9.2493 -4.0355 0.0 0
M  V30 20 N 1.732 -0.5 0.0 0
M  V30 21 C 2.598 1.0 0.0 0
M  V30 22 O 8.9905 -5.0014 0.0 0
M  V30 23 C 10.2152 -3.7767 0.0 0
M  V30 24 O 1.732 -1.5 0.0 0
M  V30 25 N 3.407 1.5877 0.0 0
M  V30 26 C 1.789 1.5877 0.0 0
M  V30 27 C 0.866 -2.0 0.0 0
M  V30 28 C 3.098 2.5388 0.0 0
M  V30 29 S 2.098 2.5388 0.0 0
M  V30 30 N 3.6858 3.3478 0.0 0
M  V30 END ATOM
M  V30 BEGIN BOND
M  V30 1 1 2 1 CFG=1
M  V30 2 1 1 3
M  V30 3 1 2 4
M  V30 4 1 5 2
M  V30 5 1 3 6
M  V30 6 1 4 7
M  V30 7 1 4 8
M  V30 8 1 5 9 CFG=1
M  V30 9 1 6 10
M  V30 10 1 7 11
M  V30 11 2 8 12
M  V30 12 1 9 13
M  V30 13 1 10 14
M  V30 14 2 11 15
M  V30 15 1 11 16
M  V30 16 2 13 17
M  V30 17 1 13 18
M  V30 18 1 14 19
M  V30 19 2 18 20
M  V30 20 1 18 21
M  V30 21 2 19 22
M  V30 22 1 19 23
M  V30 23 1 20 24
M  V30 24 1 21 25
M  V30 25 2 21 26
M  V30 26 1 24 27
M  V30 27 2 25 28
M  V30 28 1 26 29
M  V30 29 1 28 30
M  V30 30 1 5 8
M  V30 31 2 6 7
M  V30 32 1 28 29
M  V30 END BOND
M  V30 BEGIN COLLECTION
M  V30 MDLV30/STERAC1 ATOMS=(2 2 5)
M  V30 END COLLECTION
M  V30 END CTAB
M  END
>  <Molecule Name>


>  <status>
DISCONTINUED

>  <cas>
63527-52-6

>  <name>
CEFOTAXIME

>  <ID>
1025

>  <Smiles>
CC(OCC(CS[C@H]1[C@H]2NC(/C(/c3csc(N)n3)=N\OC)=O)=C(C([O-])=O)N1C2=O)=O

$$$$

Actelion Java MolfileCreator 2.0

  0  0  0  0  0  0              0 V3000
M  V30 BEGIN CTAB
M  V30 COUNTS 36 39 0 0 0
M  V30 BEGIN ATOM
M  V30 1 S -4.5708 -0.3105 0.0 0
M  V30 2 C -5.5367 -0.5693 0.0 0
M  V30 3 C -3.8637 -1.0176 0.0 0
M  V30 4 N -6.3138 0.0599 0.0 0
M  V30 5 N -5.8951 -1.5029 0.0 0
M  V30 6 C -2.8977 -0.7588 0.0 0
M  V30 7 N -7.1525 -0.4846 0.0 0
M  V30 8 N -6.8937 -1.4505 0.0 0
M  V30 9 C -5.3504 -2.3416 0.0 0
M  V30 10 C -2.1906 -1.4659 0.0 0
M  V30 11 C -2.6389 0.2071 0.0 0
M  V30 12 N -1.2247 -1.2071 0.0 0
M  V30 13 C -2.4494 -2.4318 0.0 0
M  V30 14 O -1.673 0.4659 0.0 0
M  V30 15 C -0.2588 -1.4659 0.0 0
M  V30 16 C -0.9659 -0.2411 0.0 0 CFG=1
M  V30 17 O -3.4154 -2.6906 0.0 0
M  V30 18 O -1.7423 -3.1389 0.0 0 CHG=-1
M  V30 19 O 0.2411 -2.3319 0.0 0
M  V30 20 C 0.0 -0.5 0.0 0 CFG=2
M  V30 21 O 0.7933 -1.1087 0.0 0
M  V30 22 N 0.866 0.0 0.0 0
M  V30 23 C 1.7172 -0.726 0.0 0
M  V30 24 C 0.866 0.9999 0.0 0
M  V30 25 O 0.0 1.5 0.0 0
M  V30 26 C 1.732 1.4999 0.0 0 CFG=2
M  V30 27 C 2.598 0.9999 0.0 0
M  V30 28 C 1.732 2.4999 0.0 0
M  V30 29 C 3.4641 1.4999 0.0 0
M  V30 30 C 2.598 0.0 0.0 0
M  V30 31 O 2.598 3.0 0.0 0
M  V30 32 O 0.866 3.0 0.0 0 CHG=-1
M  V30 33 C 4.3301 0.9999 0.0 0
M  V30 34 C 3.4641 -0.5 0.0 0
M  V30 35 C 4.3301 0.0 0.0 0
M  V30 36 O 5.1961 -0.5 0.0 0
M  V30 END ATOM
M  V30 BEGIN BOND
M  V30 1 1 1 2
M  V30 2 1 1 3
M  V30 3 2 2 4
M  V30 4 1 2 5
M  V30 5 1 3 6
M  V30 6 1 4 7
M  V30 7 1 5 8
M  V30 8 1 5 9
M  V30 9 2 6 10
M  V30 10 1 6 11
M  V30 11 1 10 12
M  V30 12 1 10 13
M  V30 13 1 11 14
M  V30 14 1 12 15
M  V30 15 1 16 12
M  V30 16 2 13 17
M  V30 17 1 13 18
M  V30 18 2 15 19
M  V30 19 1 20 15
M  V30 20 1 20 21 CFG=3
M  V30 21 1 20 22
M  V30 22 1 21 23
M  V30 23 1 22 24
M  V30 24 2 24 25
M  V30 25 1 26 24 CFG=1
M  V30 26 1 26 27
M  V30 27 1 26 28
M  V30 28 2 27 29
M  V30 29 1 27 30
M  V30 30 2 28 31
M  V30 31 1 28 32
M  V30 32 1 29 33
M  V30 33 2 30 34
M  V30 34 2 33 35
M  V30 35 1 35 36
M  V30 36 2 7 8
M  V30 37 1 16 14 CFG=1
M  V30 38 1 16 20
M  V30 39 1 34 35
M  V30 END BOND
M  V30 BEGIN COLLECTION
M  V30 MDLV30/STERAC1 ATOMS=(3 16 20 26)
M  V30 END COLLECTION
M  V30 END CTAB
M  END
>  <Molecule Name>


>  <status>
DISCONTINUED

>  <cas>
64952-97-2

>  <name>
MOXALACTAM

>  <ID>
1026

>  <Smiles>
Cn1nnnc1SCC(CO[C@H]1[C@]2(NC([C@@H](C([O-])=O)c(cc3)ccc3O)=O)OC)=C(C([O-])=O)N1C2=O

$$$$

Actelion Java MolfileCreator 2.0

  0  0  0  0  0  0              0 V3000
M  V30 BEGIN CTAB
M  V30 COUNTS 44 48 0 0 0
M  V30 BEGIN ATOM
M  V30 1 S 5.1961 -2.4318 0.0 0
M  V30 2 C 5.4549 -1.4659 0.0 0 CFG=2
M  V30 3 C 5.9032 -3.1389 0.0 0
M  V30 4 N 6.4208 -1.2071 0.0 0
M  V30 5 C 5.1961 -0.5 0.0 0 CFG=2
M  V30 6 C 6.8691 -2.8801 0.0 0
M  V30 7 C 7.128 -1.9142 0.0 0
M  V30 8 C 6.162 -0.2411 0.0 0
M  V30 9 N 4.3301 0.0 0.0 0
M  V30 10 C 7.5762 -3.5872 0.0 0
M  V30 11 C 8.0939 -1.6553 0.0 0
M  V30 12 O 6.662 0.6248 0.0 0
M  V30 13 C 3.4641 -0.5 0.0 0
M  V30 14 S 7.3174 -4.5531 0.0 0
M  V30 15 O 8.801 -2.3625 0.0 0
M  V30 16 O 8.3527 -0.6894 0.0 0 CHG=-1
M  V30 17 O 3.4641 -1.5 0.0 0
M  V30 18 C 2.598 0.0 0.0 0 CFG=1
M  V30 19 C 8.0245 -5.2602 0.0 0
M  V30 20 N 1.732 -0.5 0.0 0
M  V30 21 C 2.598 1.0 0.0 0
M  V30 22 N 7.8681 -6.2479 0.0 0
M  V30 23 N 9.0122 -5.1038 0.0 0
M  V30 24 C 0.866 0.0 0.0 0
M  V30 25 C 3.4641 1.5 0.0 0
M  V30 26 C 1.732 1.4999 0.0 0
M  V30 27 N 8.7591 -6.7019 0.0 0
M  V30 28 N 9.4662 -5.9948 0.0 0
M  V30 29 C 9.4662 -4.2128 0.0 0
M  V30 30 O 0.866 1.0 0.0 0
M  V30 31 N 0.0 -0.5 0.0 0
M  V30 32 C 3.4641 2.5 0.0 0
M  V30 33 C 1.732 2.5 0.0 0
M  V30 34 C -0.866 0.0 0.0 0
M  V30 35 C 0.0 -1.4999 0.0 0
M  V30 36 C 2.598 3.0 0.0 0
M  V30 37 O -0.866 1.0 0.0 0
M  V30 38 C -1.732 -0.4999 0.0 0
M  V30 39 C -0.866 -1.9999 0.0 0
M  V30 40 O 2.598 4.0 0.0 0
M  V30 41 O -2.598 0.0 0.0 0
M  V30 42 N -1.732 -1.4999 0.0 0
M  V30 43 C -2.598 -1.9999 0.0 0
M  V30 44 C -2.598 -2.9999 0.0 0
M  V30 END ATOM
M  V30 BEGIN BOND
M  V30 1 1 2 1 CFG=1
M  V30 2 1 1 3
M  V30 3 1 2 4
M  V30 4 1 5 2
M  V30 5 1 3 6
M  V30 6 1 4 7
M  V30 7 1 4 8
M  V30 8 1 5 9 CFG=1
M  V30 9 1 6 10
M  V30 10 1 7 11
M  V30 11 2 8 12
M  V30 12 1 9 13
M  V30 13 1 10 14
M  V30 14 2 11 15
M  V30 15 1 11 16
M  V30 16 2 13 17
M  V30 17 1 18 13
M  V30 18 1 14 19
M  V30 19 1 18 20 CFG=1
M  V30 20 1 18 21
M  V30 21 2 19 22
M  V30 22 1 19 23
M  V30 23 1 20 24
M  V30 24 2 21 25
M  V30 25 1 21 26
M  V30 26 1 22 27
M  V30 27 1 23 28
M  V30 28 1 23 29
M  V30 29 2 24 30
M  V30 30 1 24 31
M  V30 31 1 25 32
M  V30 32 2 26 33
M  V30 33 1 31 34
M  V30 34 1 31 35
M  V30 35 2 32 36
M  V30 36 2 34 37
M  V30 37 1 34 38
M  V30 38 1 35 39
M  V30 39 1 36 40
M  V30 40 2 38 41
M  V30 41 1 38 42
M  V30 42 1 42 43
M  V30 43 1 43 44
M  V30 44 1 5 8
M  V30 45 2 6 7
M  V30 46 2 27 28
M  V30 47 1 33 36
M  V30 48 1 39 42
M  V30 END BOND
M  V30 BEGIN COLLECTION
M  V30 MDLV30/STERAC1 ATOMS=(3 2 5 18)
M  V30 END COLLECTION
M  V30 END CTAB
M  END
>  <Molecule Name>


>  <status>
DISCONTINUED

>  <cas>
62893-19-0

>  <name>
CEFOPERAZONE

>  <ID>
1027

>  <Smiles>
CCN(CCN(C(N[C@H](C(N[C@H]([C@@H]1SCC(CSc2nnnn2C)=C(C([O-])=O)N11)C1=O)=O)c(cc1)ccc1O)=O)C1=O)C1=O

$$$$

Actelion Java MolfileCreator 2.0

  0  0  0  0  0  0              0 V3000
M  V30 BEGIN CTAB
M  V30 COUNTS 35 38 0 0 0
M  V30 BEGIN ATOM
M  V30 1 S 3.4641 -2.4318 0.0 0
M  V30 2 C 3.7229 -1.4659 0.0 0 CFG=2
M  V30 3 C 4.1712 -3.1389 0.0 0
M  V30 4 N 4.6888 -1.2071 0.0 0
M  V30 5 C 3.4641 -0.5 0.0 0 CFG=2
M  V30 6 C 5.1371 -2.8801 0.0 0
M  V30 7 C 5.3959 -1.9142 0.0 0
M  V30 8 C 4.43 -0.2411 0.0 0
M  V30 9 N 2.598 0.0 0.0 0
M  V30 10 C 5.8442 -3.5872 0.0 0
M  V30 11 C 6.3618 -1.6553 0.0 0
M  V30 12 O 4.93 0.6248 0.0 0
M  V30 13 C 1.732 -0.5 0.0 0
M  V30 14 S 5.5854 -4.5531 0.0 0
M  V30 15 O 7.0689 -2.3625 0.0 0
M  V30 16 O 6.6206 -0.6894 0.0 0 CHG=-1
M  V30 17 O 1.732 -1.5 0.0 0
M  V30 18 C 0.866 0.0 0.0 0
M  V30 19 C 6.2925 -5.2602 0.0 0
M  V30 20 C 0.0 -0.5 0.0 0
M  V30 21 N 6.136 -6.2479 0.0 0
M  V30 22 N 7.2802 -5.1038 0.0 0
M  V30 23 C -0.866 0.0 0.0 0
M  V30 24 C 0.0 -1.4999 0.0 0
M  V30 25 N 7.0271 -6.7019 0.0 0
M  V30 26 N 7.7342 -5.9948 0.0 0
M  V30 27 C 7.7342 -4.2128 0.0 0
M  V30 28 C -1.732 -0.4999 0.0 0
M  V30 29 C -0.866 1.0 0.0 0
M  V30 30 C -0.866 -1.9999 0.0 0
M  V30 31 C 8.7328 -4.1605 0.0 0
M  V30 32 C -1.732 -1.4999 0.0 0
M  V30 33 N -1.732 1.5 0.0 0
M  V30 34 O 9.2774 -4.9991 0.0 0
M  V30 35 O 9.1868 -3.2694 0.0 0 CHG=-1
M  V30 END ATOM
M  V30 BEGIN BOND
M  V30 1 1 2 1 CFG=1
M  V30 2 1 1 3
M  V30 3 1 2 4
M  V30 4 1 5 2
M  V30 5 1 3 6
M  V30 6 1 4 7
M  V30 7 1 4 8
M  V30 8 1 5 9 CFG=1
M  V30 9 1 6 10
M  V30 10 1 7 11
M  V30 11 2 8 12
M  V30 12 1 9 13
M  V30 13 1 10 14
M  V30 14 2 11 15
M  V30 15 1 11 16
M  V30 16 2 13 17
M  V30 17 1 13 18
M  V30 18 1 14 19
M  V30 19 1 18 20
M  V30 20 2 19 21
M  V30 21 1 19 22
M  V30 22 2 20 23
M  V30 23 1 20 24
M  V30 24 1 21 25
M  V30 25 1 22 26
M  V30 26 1 22 27
M  V30 27 1 23 28
M  V30 28 1 23 29
M  V30 29 2 24 30
M  V30 30 1 27 31
M  V30 31 2 28 32
M  V30 32 1 29 33
M  V30 33 2 31 34
M  V30 34 1 31 35
M  V30 35 1 5 8
M  V30 36 2 6 7
M  V30 37 2 25 26
M  V30 38 1 30 32
M  V30 END BOND
M  V30 BEGIN COLLECTION
M  V30 MDLV30/STERAC1 ATOMS=(2 2 5)
M  V30 END COLLECTION
M  V30 END CTAB
M  END
>  <Molecule Name>


>  <status>
DISCONTINUED

>  <cas>
60925-61-3

>  <name>
CEFORANIDE

>  <ID>
1028

>  <Smiles>
NCc1c(CC(N[C@H]([C@@H]2SCC(CSc3nnnn3CC([O-])=O)=C(C([O-])=O)N22)C2=O)=O)cccc1

$$$$

Actelion Java MolfileCreator 2.0

  0  0  0  0  0  0              0 V3000
M  V30 BEGIN CTAB
M  V30 COUNTS 29 31 0 0 0
M  V30 BEGIN ATOM
M  V30 1 S 5.1961 -2.4318 0.0 0
M  V30 2 C 5.4549 -1.4659 0.0 0 CFG=2
M  V30 3 C 5.9032 -3.1389 0.0 0
M  V30 4 N 6.4208 -1.2071 0.0 0
M  V30 5 C 5.1961 -0.5 0.0 0 CFG=2
M  V30 6 C 6.8691 -2.8801 0.0 0
M  V30 7 C 7.128 -1.9142 0.0 0
M  V30 8 C 6.162 -0.2411 0.0 0
M  V30 9 N 4.3301 0.0 0.0 0
M  V30 10 C 7.5762 -3.5872 0.0 0
M  V30 11 C 8.0939 -1.6553 0.0 0
M  V30 12 O 6.662 0.6248 0.0 0
M  V30 13 C 3.4641 -0.5 0.0 0
M  V30 14 O 8.5422 -3.3284 0.0 0
M  V30 15 O 8.801 -2.3625 0.0 0
M  V30 16 O 8.3527 -0.6894 0.0 0 CHG=-1
M  V30 17 O 3.4641 -1.5 0.0 0
M  V30 18 C 2.598 0.0 0.0 0
M  V30 19 C 9.2493 -4.0355 0.0 0
M  V30 20 N 1.732 -0.5 0.0 0
M  V30 21 C 2.598 1.0 0.0 0
M  V30 22 O 8.9905 -5.0014 0.0 0
M  V30 23 N 10.2152 -3.7767 0.0 0
M  V30 24 O 1.732 -1.5 0.0 0
M  V30 25 O 3.407 1.5877 0.0 0
M  V30 26 C 1.789 1.5877 0.0 0
M  V30 27 C 0.866 -2.0 0.0 0
M  V30 28 C 3.098 2.5388 0.0 0
M  V30 29 C 2.098 2.5388 0.0 0
M  V30 END ATOM
M  V30 BEGIN BOND
M  V30 1 1 2 1 CFG=1
M  V30 2 1 1 3
M  V30 3 1 2 4
M  V30 4 1 5 2
M  V30 5 1 3 6
M  V30 6 1 4 7
M  V30 7 1 4 8
M  V30 8 1 5 9 CFG=1
M  V30 9 1 6 10
M  V30 10 1 7 11
M  V30 11 2 8 12
M  V30 12 1 9 13
M  V30 13 1 10 14
M  V30 14 2 11 15
M  V30 15 1 11 16
M  V30 16 2 13 17
M  V30 17 1 13 18
M  V30 18 1 14 19
M  V30 19 2 18 20
M  V30 20 1 18 21
M  V30 21 2 19 22
M  V30 22 1 19 23
M  V30 23 1 20 24
M  V30 24 1 21 25
M  V30 25 2 21 26
M  V30 26 1 24 27
M  V30 27 1 25 28
M  V30 28 1 26 29
M  V30 29 1 5 8
M  V30 30 2 6 7
M  V30 31 2 28 29
M  V30 END BOND
M  V30 BEGIN COLLECTION
M  V30 MDLV30/STERAC1 ATOMS=(2 2 5)
M  V30 END COLLECTION
M  V30 END CTAB
M  END
>  <Molecule Name>


>  <status>
-

>  <cas>
55268-75-2

>  <name>
CEFUROXIME

>  <ID>
1029

>  <Smiles>
CO/N=C(\C(N[C@H]([C@@H]1SCC(COC(N)=O)=C(C([O-])=O)N11)C1=O)=O)/c1ccco1

$$$$

Actelion Java MolfileCreator 2.0

  0  0  0  0  0  0              0 V3000
M  V30 BEGIN CTAB
M  V30 COUNTS 35 37 0 0 0
M  V30 BEGIN ATOM
M  V30 1 S 5.1961 -2.4318 0.0 0
M  V30 2 C 5.4549 -1.4659 0.0 0 CFG=2
M  V30 3 C 5.9032 -3.1389 0.0 0
M  V30 4 N 6.4208 -1.2071 0.0 0
M  V30 5 C 5.1961 -0.5 0.0 0 CFG=2
M  V30 6 C 6.8691 -2.8801 0.0 0
M  V30 7 C 7.128 -1.9142 0.0 0
M  V30 8 C 6.162 -0.2411 0.0 0
M  V30 9 N 4.3301 0.0 0.0 0
M  V30 10 C 7.5762 -3.5872 0.0 0
M  V30 11 C 8.0939 -1.6553 0.0 0
M  V30 12 O 6.662 0.6248 0.0 0
M  V30 13 C 3.4641 -0.5 0.0 0
M  V30 14 O 8.5422 -3.3284 0.0 0
M  V30 15 O 8.801 -2.3625 0.0 0
M  V30 16 O 8.3527 -0.6894 0.0 0
M  V30 17 O 3.4641 -1.5 0.0 0
M  V30 18 C 2.598 0.0 0.0 0
M  V30 19 C 9.2493 -4.0355 0.0 0
M  V30 20 C 9.3186 -0.4306 0.0 0 CFG=2
M  V30 21 N 1.732 -0.5 0.0 0
M  V30 22 C 2.598 1.0 0.0 0
M  V30 23 O 8.9905 -5.0014 0.0 0
M  V30 24 N 10.2152 -3.7767 0.0 0
M  V30 25 O 9.5774 0.5352 0.0 0
M  V30 26 C 10.0257 -1.1377 0.0 0
M  V30 27 O 1.732 -1.5 0.0 0
M  V30 28 O 3.407 1.5877 0.0 0
M  V30 29 C 1.789 1.5877 0.0 0
M  V30 30 C 10.5434 0.794 0.0 0
M  V30 31 C 0.866 -2.0 0.0 0
M  V30 32 C 3.098 2.5388 0.0 0
M  V30 33 C 2.098 2.5388 0.0 0
M  V30 34 O 11.2505 0.0869 0.0 0
M  V30 35 C 10.8022 1.76 0.0 0
M  V30 END ATOM
M  V30 BEGIN BOND
M  V30 1 1 2 1 CFG=1
M  V30 2 1 1 3
M  V30 3 1 2 4
M  V30 4 1 5 2
M  V30 5 1 3 6
M  V30 6 1 4 7
M  V30 7 1 4 8
M  V30 8 1 5 9 CFG=1
M  V30 9 1 6 10
M  V30 10 1 7 11
M  V30 11 2 8 12
M  V30 12 1 9 13
M  V30 13 1 10 14
M  V30 14 2 11 15
M  V30 15 1 11 16
M  V30 16 2 13 17
M  V30 17 1 13 18
M  V30 18 1 14 19
M  V30 19 1 20 16 CFG=3
M  V30 20 2 18 21
M  V30 21 1 18 22
M  V30 22 2 19 23
M  V30 23 1 19 24
M  V30 24 1 20 25
M  V30 25 1 20 26
M  V30 26 1 21 27
M  V30 27 1 22 28
M  V30 28 2 22 29
M  V30 29 1 25 30
M  V30 30 1 27 31
M  V30 31 1 28 32
M  V30 32 1 29 33
M  V30 33 2 30 34
M  V30 34 1 30 35
M  V30 35 1 5 8
M  V30 36 2 6 7
M  V30 37 2 32 33
M  V30 END BOND
M  V30 BEGIN COLLECTION
M  V30 MDLV30/STERAC1 ATOMS=(3 2 5 20)
M  V30 END COLLECTION
M  V30 END CTAB
M  END
>  <Molecule Name>


>  <status>
-

>  <cas>
64544-07-6

>  <name>
CEFUROXIME AXETIL

>  <ID>
1030

>  <Smiles>
C[C@@H](OC(C)=O)OC(C1=C(COC(N)=O)CS[C@@H]([C@H]2NC(/C(/c3ccco3)=N\OC)=O)N1C2=O)=O

$$$$

Actelion Java MolfileCreator 2.0

  0  0  0  0  0  0              0 V3000
M  V30 BEGIN CTAB
M  V30 COUNTS 35 37 0 0 0
M  V30 BEGIN ATOM
M  V30 1 S 5.1961 -2.4318 0.0 0
M  V30 2 C 5.4549 -1.4659 0.0 0 CFG=2
M  V30 3 C 5.9032 -3.1389 0.0 0
M  V30 4 N 6.4208 -1.2071 0.0 0
M  V30 5 C 5.1961 -0.5 0.0 0 CFG=2
M  V30 6 C 6.8691 -2.8801 0.0 0
M  V30 7 C 7.128 -1.9142 0.0 0
M  V30 8 C 6.162 -0.2411 0.0 0
M  V30 9 N 4.3301 0.0 0.0 0
M  V30 10 C 7.5762 -3.5872 0.0 0
M  V30 11 C 8.0939 -1.6553 0.0 0
M  V30 12 O 6.662 0.6248 0.0 0
M  V30 13 C 3.4641 -0.5 0.0 0
M  V30 14 O 8.5422 -3.3284 0.0 0
M  V30 15 O 8.801 -2.3625 0.0 0
M  V30 16 O 8.3527 -0.6894 0.0 0
M  V30 17 O 3.4641 -1.5 0.0 0
M  V30 18 C 2.598 0.0 0.0 0
M  V30 19 C 9.2493 -4.0355 0.0 0
M  V30 20 C 9.3186 -0.4306 0.0 0 CFG=1
M  V30 21 N 1.732 -0.5 0.0 0
M  V30 22 C 2.598 1.0 0.0 0
M  V30 23 O 8.9905 -5.0014 0.0 0
M  V30 24 N 10.2152 -3.7767 0.0 0
M  V30 25 O 9.5774 0.5352 0.0 0
M  V30 26 C 10.0257 -1.1377 0.0 0
M  V30 27 O 1.732 -1.5 0.0 0
M  V30 28 O 3.407 1.5877 0.0 0
M  V30 29 C 1.789 1.5877 0.0 0
M  V30 30 C 10.5434 0.794 0.0 0
M  V30 31 C 0.866 -2.0 0.0 0
M  V30 32 C 3.098 2.5388 0.0 0
M  V30 33 C 2.098 2.5388 0.0 0
M  V30 34 O 11.2505 0.0869 0.0 0
M  V30 35 C 10.8022 1.76 0.0 0
M  V30 END ATOM
M  V30 BEGIN BOND
M  V30 1 1 2 1 CFG=1
M  V30 2 1 1 3
M  V30 3 1 2 4
M  V30 4 1 5 2
M  V30 5 1 3 6
M  V30 6 1 4 7
M  V30 7 1 4 8
M  V30 8 1 5 9 CFG=1
M  V30 9 1 6 10
M  V30 10 1 7 11
M  V30 11 2 8 12
M  V30 12 1 9 13
M  V30 13 1 10 14
M  V30 14 2 11 15
M  V30 15 1 11 16
M  V30 16 2 13 17
M  V30 17 1 13 18
M  V30 18 1 14 19
M  V30 19 1 20 16 CFG=1
M  V30 20 2 18 21
M  V30 21 1 18 22
M  V30 22 2 19 23
M  V30 23 1 19 24
M  V30 24 1 20 25
M  V30 25 1 20 26
M  V30 26 1 21 27
M  V30 27 1 22 28
M  V30 28 2 22 29
M  V30 29 1 25 30
M  V30 30 1 27 31
M  V30 31 1 28 32
M  V30 32 1 29 33
M  V30 33 2 30 34
M  V30 34 1 30 35
M  V30 35 1 5 8
M  V30 36 2 6 7
M  V30 37 2 32 33
M  V30 END BOND
M  V30 BEGIN COLLECTION
M  V30 MDLV30/STERAC1 ATOMS=(3 2 5 20)
M  V30 END COLLECTION
M  V30 END CTAB
M  END
>  <Molecule Name>


>  <status>
-

>  <cas>
64544-07-6

>  <name>
CEFUROXIME AXETIL

>  <ID>
1031

>  <Smiles>
C[C@H](OC(C)=O)OC(C1=C(COC(N)=O)CS[C@@H]([C@H]2NC(/C(/c3ccco3)=N\OC)=O)N1C2=O)=O

$$$$

Actelion Java MolfileCreator 2.0

  0  0  0  0  0  0              0 V3000
M  V30 BEGIN CTAB
M  V30 COUNTS 25 27 0 0 0
M  V30 BEGIN ATOM
M  V30 1 S 5.1961 -2.4318 0.0 0
M  V30 2 C 5.4549 -1.4659 0.0 0 CFG=2
M  V30 3 C 5.9032 -3.1389 0.0 0
M  V30 4 N 6.4208 -1.2071 0.0 0
M  V30 5 C 5.1961 -0.5 0.0 0 CFG=2
M  V30 6 C 6.8691 -2.8801 0.0 0
M  V30 7 C 7.128 -1.9142 0.0 0
M  V30 8 C 6.162 -0.2411 0.0 0
M  V30 9 N 4.3301 0.0 0.0 0
M  V30 10 C 8.0939 -1.6553 0.0 0
M  V30 11 O 6.662 0.6248 0.0 0
M  V30 12 C 3.4641 -0.5 0.0 0
M  V30 13 O 8.801 -2.3625 0.0 0
M  V30 14 O 8.3527 -0.6894 0.0 0 CHG=-1
M  V30 15 O 3.4641 -1.5 0.0 0
M  V30 16 C 2.598 0.0 0.0 0
M  V30 17 N 1.732 -0.5 0.0 0
M  V30 18 C 2.598 1.0 0.0 0
M  V30 19 O 1.732 -1.5 0.0 0
M  V30 20 N 3.407 1.5877 0.0 0
M  V30 21 C 1.789 1.5877 0.0 0
M  V30 22 C 0.866 -2.0 0.0 0
M  V30 23 C 3.098 2.5388 0.0 0
M  V30 24 S 2.098 2.5388 0.0 0
M  V30 25 N 3.6858 3.3478 0.0 0
M  V30 END ATOM
M  V30 BEGIN BOND
M  V30 1 1 2 1 CFG=1
M  V30 2 1 1 3
M  V30 3 1 2 4
M  V30 4 1 5 2
M  V30 5 1 3 6
M  V30 6 1 4 7
M  V30 7 1 4 8
M  V30 8 1 5 9 CFG=1
M  V30 9 1 7 10
M  V30 10 2 8 11
M  V30 11 1 9 12
M  V30 12 2 10 13
M  V30 13 1 10 14
M  V30 14 2 12 15
M  V30 15 1 12 16
M  V30 16 2 16 17
M  V30 17 1 16 18
M  V30 18 1 17 19
M  V30 19 1 18 20
M  V30 20 2 18 21
M  V30 21 1 19 22
M  V30 22 2 20 23
M  V30 23 1 21 24
M  V30 24 1 23 25
M  V30 25 1 5 8
M  V30 26 2 6 7
M  V30 27 1 23 24
M  V30 END BOND
M  V30 BEGIN COLLECTION
M  V30 MDLV30/STERAC1 ATOMS=(2 2 5)
M  V30 END COLLECTION
M  V30 END CTAB
M  END
>  <Molecule Name>


>  <status>
DISCONTINUED

>  <cas>
68401-81-0

>  <name>
CEFTIZOXIME

>  <ID>
1032

>  <Smiles>
CO/N=C(\C(N[C@H]([C@@H]1SCC=C(C([O-])=O)N11)C1=O)=O)/c1csc(N)n1

$$$$

Actelion Java MolfileCreator 2.0

  0  0  0  0  0  0              0 V3000
M  V30 BEGIN CTAB
M  V30 COUNTS 32 35 0 0 0
M  V30 BEGIN ATOM
M  V30 1 S 8.1039 -3.6968 0.0 0
M  V30 2 C 9.5043 -4.2343 0.0 0
M  V30 3 C 8.1824 -2.1988 0.0 0 CFG=2
M  V30 4 C 10.4483 -3.0686 0.0 0 CFG=2
M  V30 5 C 9.116 -5.6832 0.0 0
M  V30 6 C 10.5649 -5.295 0.0 0
M  V30 7 N 9.6313 -1.8106 0.0 0
M  V30 8 C 7.7942 -0.75 0.0 0 CFG=2
M  V30 9 C 11.9462 -3.1471 0.0 0
M  V30 10 C 9.2431 -0.3617 0.0 0
M  V30 11 N 6.4951 0.0 0.0 0
M  V30 12 O 12.6272 -4.4836 0.0 0
M  V30 13 O 12.7632 -1.8891 0.0 0 CHG=-1
M  V30 14 O 9.9931 0.9372 0.0 0
M  V30 15 C 5.1961 -0.75 0.0 0
M  V30 16 O 5.1961 -2.25 0.0 0
M  V30 17 C 3.8971 0.0 0.0 0 CFG=1
M  V30 18 N 2.598 -0.75 0.0 0
M  V30 19 C 3.8971 1.5 0.0 0
M  V30 20 C 1.299 0.0 0.0 0
M  V30 21 C 5.1961 2.25 0.0 0
M  V30 22 C 2.598 2.25 0.0 0
M  V30 23 O 1.299 1.5 0.0 0
M  V30 24 N 0.0 -0.75 0.0 0
M  V30 25 C 5.1961 3.75 0.0 0
M  V30 26 C 2.598 3.75 0.0 0
M  V30 27 C -1.3703 -0.1398 0.0 0
M  V30 28 C -0.1567 -2.2417 0.0 0
M  V30 29 C 3.8971 4.5 0.0 0
M  V30 30 O -1.6821 1.3273 0.0 0
M  V30 31 N -2.374 -1.2546 0.0 0
M  V30 32 C -1.624 -2.5536 0.0 0
M  V30 END ATOM
M  V30 BEGIN BOND
M  V30 1 1 1 2
M  V30 2 1 3 1 CFG=1
M  V30 3 1 4 2
M  V30 4 1 2 5
M  V30 5 1 2 6
M  V30 6 1 3 7
M  V30 7 1 8 3
M  V30 8 1 4 9 CFG=3
M  V30 9 1 7 10
M  V30 10 1 8 11 CFG=1
M  V30 11 2 9 12
M  V30 12 1 9 13
M  V30 13 2 10 14
M  V30 14 1 11 15
M  V30 15 2 15 16
M  V30 16 1 17 15
M  V30 17 1 17 18 CFG=1
M  V30 18 1 17 19
M  V30 19 1 18 20
M  V30 20 2 19 21
M  V30 21 1 19 22
M  V30 22 2 20 23
M  V30 23 1 20 24
M  V30 24 1 21 25
M  V30 25 2 22 26
M  V30 26 1 24 27
M  V30 27 1 24 28
M  V30 28 2 25 29
M  V30 29 2 27 30
M  V30 30 1 27 31
M  V30 31 1 28 32
M  V30 32 1 4 7
M  V30 33 1 8 10
M  V30 34 1 26 29
M  V30 35 1 31 32
M  V30 END BOND
M  V30 BEGIN COLLECTION
M  V30 MDLV30/STERAC1 ATOMS=(4 3 4 8 17)
M  V30 END COLLECTION
M  V30 END CTAB
M  END
>  <Molecule Name>


>  <status>
DISCONTINUED

>  <cas>
37091-66-0

>  <name>
AZLOCILLIN

>  <ID>
1033

>  <Smiles>
CC(C)([C@H]1C([O-])=O)S[C@@H]([C@H]2NC([C@H](c3ccccc3)NC(N(CCN3)C3=O)=O)=O)N1C2=O

$$$$

Actelion Java MolfileCreator 2.0

  0  0  0  0  0  0              0 V3000
M  V30 BEGIN CTAB
M  V30 COUNTS 14 15 0 0 0
M  V30 BEGIN ATOM
M  V30 1 O 4.8055 2.6683 0.0 0
M  V30 2 C 4.5467 1.7024 0.0 0
M  V30 3 N 3.6807 1.2024 0.0 0
M  V30 4 C 5.0467 0.8364 0.0 0
M  V30 5 C 2.7026 0.9945 0.0 0 CFG=2
M  V30 6 C 4.1807 0.3364 0.0 0 CFG=1
M  V30 7 C 2.598 0.0 0.0 0
M  V30 8 C 1.9594 1.6636 0.0 0
M  V30 9 O 3.5116 -0.4067 0.0 0
M  V30 10 C 1.732 -0.5 0.0 0
M  V30 11 O 2.1673 2.6418 0.0 0
M  V30 12 O 1.0084 1.3546 0.0 0 CHG=-1
M  V30 13 C 1.732 -1.5 0.0 0
M  V30 14 O 0.866 -2.0 0.0 0
M  V30 END ATOM
M  V30 BEGIN BOND
M  V30 1 2 1 2
M  V30 2 1 2 3
M  V30 3 1 2 4
M  V30 4 1 5 3
M  V30 5 1 6 3
M  V30 6 1 5 7
M  V30 7 1 5 8 CFG=3
M  V30 8 1 6 9 CFG=1
M  V30 9 2 7 10
M  V30 10 2 8 11
M  V30 11 1 8 12
M  V30 12 1 10 13
M  V30 13 1 13 14
M  V30 14 1 4 6
M  V30 15 1 7 9
M  V30 END BOND
M  V30 BEGIN COLLECTION
M  V30 MDLV30/STERAC1 ATOMS=(2 5 6)
M  V30 END COLLECTION
M  V30 END CTAB
M  END
>  <Molecule Name>


>  <status>
-

>  <cas>
58001-44-8

>  <name>
CLAVULANATE

>  <ID>
1034

>  <Smiles>
[O-]C([C@@H](/C(/O[C@@H]1C2)=C/CO)N1C2=O)=O

$$$$

Actelion Java MolfileCreator 2.0

  0  0  0  0  0  0              0 V3000
M  V30 BEGIN CTAB
M  V30 COUNTS 22 24 0 0 0
M  V30 BEGIN ATOM
M  V30 1 S 6.604 -1.2051 0.0 0
M  V30 2 C 7.7697 -0.2612 0.0 0
M  V30 3 C 5.346 -0.3882 0.0 0 CFG=2
M  V30 4 C 7.2321 1.1391 0.0 0 CFG=2
M  V30 5 C 8.8303 -1.3218 0.0 0
M  V30 6 C 9.2185 0.127 0.0 0
M  V30 7 N 5.7342 1.0606 0.0 0
M  V30 8 C 3.8971 0.0 0.0 0 CFG=2
M  V30 9 C 8.0491 2.3971 0.0 0
M  V30 10 C 4.2853 1.4488 0.0 0
M  V30 11 N 2.598 -0.75 0.0 0
M  V30 12 O 9.547 2.3186 0.0 0
M  V30 13 O 7.3681 3.7336 0.0 0 CHG=-1
M  V30 14 O 3.5353 2.7479 0.0 0
M  V30 15 C 1.299 0.0 0.0 0
M  V30 16 N 0.0 -0.75 0.0 0
M  V30 17 C -1.2393 0.0949 0.0 0
M  V30 18 C 0.112 -2.2458 0.0 0
M  V30 19 C -2.6727 -0.3471 0.0 0
M  V30 20 C -0.9874 -3.266 0.0 0
M  V30 21 C -3.2207 -1.7434 0.0 0
M  V30 22 C -2.4707 -3.0425 0.0 0
M  V30 END ATOM
M  V30 BEGIN BOND
M  V30 1 1 1 2
M  V30 2 1 3 1 CFG=1
M  V30 3 1 4 2
M  V30 4 1 2 5
M  V30 5 1 2 6
M  V30 6 1 3 7
M  V30 7 1 8 3
M  V30 8 1 4 9 CFG=3
M  V30 9 1 7 10
M  V30 10 1 8 11 CFG=1
M  V30 11 2 9 12
M  V30 12 1 9 13
M  V30 13 2 10 14
M  V30 14 2 11 15
M  V30 15 1 15 16
M  V30 16 1 16 17
M  V30 17 1 16 18
M  V30 18 1 17 19
M  V30 19 1 18 20
M  V30 20 1 19 21
M  V30 21 1 20 22
M  V30 22 1 4 7
M  V30 23 1 8 10
M  V30 24 1 21 22
M  V30 END BOND
M  V30 BEGIN COLLECTION
M  V30 MDLV30/STERAC1 ATOMS=(3 3 4 8)
M  V30 END COLLECTION
M  V30 END CTAB
M  END
>  <Molecule Name>


>  <status>
DISCONTINUED

>  <cas>
32887-01-7

>  <name>
AMDINOCILLIN

>  <ID>
1035

>  <Smiles>
CC(C)([C@H]1C([O-])=O)S[C@@H]([C@H]2/N=C/N3CCCCCC3)N1C2=O

$$$$

Actelion Java MolfileCreator 2.0

  0  0  0  0  0  0              0 V3000
M  V30 BEGIN CTAB
M  V30 COUNTS 33 36 0 0 0
M  V30 BEGIN ATOM
M  V30 1 S 5.1961 -2.4318 0.0 0
M  V30 2 C 5.4549 -1.4659 0.0 0 CFG=2
M  V30 3 C 5.9032 -3.1389 0.0 0
M  V30 4 N 6.4208 -1.2071 0.0 0
M  V30 5 C 5.1961 -0.5 0.0 0 CFG=2
M  V30 6 C 6.8691 -2.8801 0.0 0
M  V30 7 C 7.128 -1.9142 0.0 0
M  V30 8 C 6.162 -0.2411 0.0 0
M  V30 9 N 4.3301 0.0 0.0 0
M  V30 10 C 7.5762 -3.5872 0.0 0
M  V30 11 C 8.0939 -1.6553 0.0 0
M  V30 12 O 6.662 0.6248 0.0 0
M  V30 13 C 3.4641 -0.5 0.0 0
M  V30 14 S 7.3174 -4.5531 0.0 0
M  V30 15 O 8.801 -2.3625 0.0 0
M  V30 16 O 8.3527 -0.6894 0.0 0 CHG=-1
M  V30 17 O 3.4641 -1.5 0.0 0
M  V30 18 C 2.598 0.0 0.0 0
M  V30 19 C 8.0245 -5.2602 0.0 0
M  V30 20 N 1.732 -0.5 0.0 0
M  V30 21 C 2.598 1.0 0.0 0
M  V30 22 N 7.8681 -6.2479 0.0 0
M  V30 23 N 9.0122 -5.1038 0.0 0
M  V30 24 O 1.732 -1.5 0.0 0
M  V30 25 N 3.407 1.5877 0.0 0
M  V30 26 C 1.789 1.5877 0.0 0
M  V30 27 N 8.7591 -6.7019 0.0 0
M  V30 28 N 9.4662 -5.9948 0.0 0
M  V30 29 C 9.4662 -4.2128 0.0 0
M  V30 30 C 0.866 -2.0 0.0 0
M  V30 31 C 3.098 2.5388 0.0 0
M  V30 32 S 2.098 2.5388 0.0 0
M  V30 33 N 3.6858 3.3478 0.0 0
M  V30 END ATOM
M  V30 BEGIN BOND
M  V30 1 1 2 1 CFG=1
M  V30 2 1 1 3
M  V30 3 1 2 4
M  V30 4 1 5 2
M  V30 5 1 3 6
M  V30 6 1 4 7
M  V30 7 1 4 8
M  V30 8 1 5 9 CFG=1
M  V30 9 1 6 10
M  V30 10 1 7 11
M  V30 11 2 8 12
M  V30 12 1 9 13
M  V30 13 1 10 14
M  V30 14 2 11 15
M  V30 15 1 11 16
M  V30 16 2 13 17
M  V30 17 1 13 18
M  V30 18 1 14 19
M  V30 19 2 18 20
M  V30 20 1 18 21
M  V30 21 2 19 22
M  V30 22 1 19 23
M  V30 23 1 20 24
M  V30 24 1 21 25
M  V30 25 2 21 26
M  V30 26 1 22 27
M  V30 27 1 23 28
M  V30 28 1 23 29
M  V30 29 1 24 30
M  V30 30 2 25 31
M  V30 31 1 26 32
M  V30 32 1 31 33
M  V30 33 1 5 8
M  V30 34 2 6 7
M  V30 35 2 27 28
M  V30 36 1 31 32
M  V30 END BOND
M  V30 BEGIN COLLECTION
M  V30 MDLV30/STERAC1 ATOMS=(2 2 5)
M  V30 END COLLECTION
M  V30 END CTAB
M  END
>  <Molecule Name>


>  <status>
DISCONTINUED

>  <cas>
65085-01-0

>  <name>
CEFMENOXIME

>  <ID>
1036

>  <Smiles>
Cn1nnnc1SCC(CS[C@H]1[C@H]2NC(/C(/c3csc(N)n3)=N\OC)=O)=C(C([O-])=O)N1C2=O

$$$$

Actelion Java MolfileCreator 2.0

  0  0  0  0  0  0              0 V3000
M  V30 BEGIN CTAB
M  V30 COUNTS 18 18 0 0 0
M  V30 BEGIN ATOM
M  V30 1 O 4.3301 0.0 0.0 0
M  V30 2 N 3.4641 -0.5 0.0 0
M  V30 3 N 2.598 0.0 0.0 0
M  V30 4 C 1.732 -0.5 0.0 0
M  V30 5 C 2.598 1.0 0.0 0
M  V30 6 O 1.732 -1.5 0.0 0
M  V30 7 N 0.866 0.0 0.0 0
M  V30 8 C 0.0 -0.5 0.0 0 CFG=2
M  V30 9 C -0.866 0.0 0.0 0 CFG=2
M  V30 10 C 0.0 -1.4999 0.0 0 CFG=2
M  V30 11 O -1.732 -0.4999 0.0 0
M  V30 12 O -0.866 1.0 0.0 0
M  V30 13 O 0.866 -2.0 0.0 0
M  V30 14 C -0.866 -1.9999 0.0 0 CFG=2
M  V30 15 C -1.732 -1.4999 0.0 0 CFG=2
M  V30 16 O -0.866 -2.9999 0.0 0
M  V30 17 C -2.598 -1.9999 0.0 0
M  V30 18 O -2.598 -2.9999 0.0 0
M  V30 END ATOM
M  V30 BEGIN BOND
M  V30 1 2 1 2
M  V30 2 1 2 3
M  V30 3 1 3 4
M  V30 4 1 3 5
M  V30 5 2 4 6
M  V30 6 1 4 7
M  V30 7 1 8 7 CFG=1
M  V30 8 1 9 8
M  V30 9 1 10 8
M  V30 10 1 9 11
M  V30 11 1 9 12 CFG=3
M  V30 12 1 10 13 CFG=3
M  V30 13 1 14 10
M  V30 14 1 15 11
M  V30 15 1 14 16 CFG=1
M  V30 16 1 15 17 CFG=3
M  V30 17 1 17 18
M  V30 18 1 14 15
M  V30 END BOND
M  V30 BEGIN COLLECTION
M  V30 MDLV30/STERAC1 ATOMS=(5 8 9 10 14 15)
M  V30 END COLLECTION
M  V30 END CTAB
M  END
>  <Molecule Name>


>  <status>
-

>  <cas>
18883-66-4

>  <name>
STREPTOZOCIN

>  <ID>
1037

>  <Smiles>
CN(C(N[C@@H]([C@@H]1O)[C@@H](O)O[C@@H](CO)[C@@H]1O)=O)N=O

$$$$

Actelion Java MolfileCreator 2.0

  0  0  0  0  0  0              0 V3000
M  V30 BEGIN CTAB
M  V30 COUNTS 37 40 0 0 0
M  V30 BEGIN ATOM
M  V30 1 S 10.3923 -3.6477 0.0 0
M  V30 2 C 10.7805 -2.1988 0.0 0 CFG=2
M  V30 3 C 11.4529 -4.7084 0.0 0
M  V30 4 N 12.2294 -1.8106 0.0 0
M  V30 5 C 10.3923 -0.75 0.0 0 CFG=2
M  V30 6 C 12.9018 -4.3202 0.0 0
M  V30 7 C 13.29 -2.8713 0.0 0
M  V30 8 C 11.8412 -0.3617 0.0 0
M  V30 9 N 9.0932 0.0 0.0 0
M  V30 10 C 13.9625 -5.3808 0.0 0
M  V30 11 C 14.7389 -2.483 0.0 0
M  V30 12 O 12.5912 0.9372 0.0 0
M  V30 13 C 7.7942 -0.75 0.0 0
M  V30 14 N 13.5743 -6.8297 0.0 0 CHG=1
M  V30 15 O 15.7996 -3.5437 0.0 0
M  V30 16 O 15.1272 -1.0342 0.0 0 CHG=-1
M  V30 17 O 7.7942 -2.25 0.0 0
M  V30 18 C 6.4951 0.0 0.0 0
M  V30 19 C 14.6349 -7.8904 0.0 0
M  V30 20 C 12.1254 -7.2179 0.0 0
M  V30 21 N 5.1961 -0.75 0.0 0
M  V30 22 C 6.4951 1.5 0.0 0
M  V30 23 C 14.2467 -9.3393 0.0 0
M  V30 24 C 11.7371 -8.6668 0.0 0
M  V30 25 O 5.1961 -2.25 0.0 0
M  V30 26 N 7.7087 2.3816 0.0 0
M  V30 27 C 5.2816 2.3816 0.0 0
M  V30 28 C 12.7978 -9.7275 0.0 0
M  V30 29 C 3.8971 -3.0 0.0 0
M  V30 30 C 7.2451 3.8082 0.0 0
M  V30 31 S 5.7451 3.8082 0.0 0
M  V30 32 C 3.8971 -4.5 0.0 0
M  V30 33 C 2.3971 -3.0 0.0 0
M  V30 34 C 3.1471 -1.7009 0.0 0
M  V30 35 N 8.1268 5.0217 0.0 0
M  V30 36 O 5.1961 -5.25 0.0 0
M  V30 37 O 2.598 -5.25 0.0 0 CHG=-1
M  V30 END ATOM
M  V30 BEGIN BOND
M  V30 1 1 2 1 CFG=1
M  V30 2 1 1 3
M  V30 3 1 2 4
M  V30 4 1 5 2
M  V30 5 1 3 6
M  V30 6 1 4 7
M  V30 7 1 4 8
M  V30 8 1 5 9 CFG=1
M  V30 9 1 6 10
M  V30 10 1 7 11
M  V30 11 2 8 12
M  V30 12 1 9 13
M  V30 13 1 10 14
M  V30 14 2 11 15
M  V30 15 1 11 16
M  V30 16 2 13 17
M  V30 17 1 13 18
M  V30 18 2 14 19
M  V30 19 1 14 20
M  V30 20 2 18 21
M  V30 21 1 18 22
M  V30 22 1 19 23
M  V30 23 2 20 24
M  V30 24 1 21 25
M  V30 25 1 22 26
M  V30 26 2 22 27
M  V30 27 2 23 28
M  V30 28 1 25 29
M  V30 29 2 26 30
M  V30 30 1 27 31
M  V30 31 1 29 32
M  V30 32 1 29 33
M  V30 33 1 29 34
M  V30 34 1 30 35
M  V30 35 2 32 36
M  V30 36 1 32 37
M  V30 37 1 5 8
M  V30 38 2 6 7
M  V30 39 1 24 28
M  V30 40 1 30 31
M  V30 END BOND
M  V30 BEGIN COLLECTION
M  V30 MDLV30/STERAC1 ATOMS=(2 2 5)
M  V30 END COLLECTION
M  V30 END CTAB
M  END
>  <Molecule Name>


>  <status>
-

>  <cas>
72558-82-8

>  <name>
CEFTAZIDIME

>  <ID>
1038

>  <Smiles>
CC(C)(C([O-])=O)O/N=C(\C(N[C@H]([C@@H]1SCC(C[n+]2ccccc2)=C(C([O-])=O)N11)C1=O)=O)/c1csc(N)n1

$$$$

Actelion Java MolfileCreator 2.0

  0  0  0  0  0  0              0 V3000
M  V30 BEGIN CTAB
M  V30 COUNTS 35 38 0 0 0
M  V30 BEGIN ATOM
M  V30 1 S 4.4064 -6.1573 0.0 0
M  V30 2 O 4.951 -5.3186 0.0 0
M  V30 3 O 3.8617 -6.9959 0.0 0
M  V30 4 O 3.5677 -5.6126 0.0 0
M  V30 5 C 5.245 -6.7019 0.0 0
M  V30 6 N 6.136 -6.2479 0.0 0
M  V30 7 N 7.0271 -6.7019 0.0 0
M  V30 8 C 6.2925 -5.2602 0.0 0
M  V30 9 N 7.7342 -5.9948 0.0 0
M  V30 10 S 5.5854 -4.5531 0.0 0
M  V30 11 N 7.2802 -5.1038 0.0 0
M  V30 12 C 5.8442 -3.5872 0.0 0
M  V30 13 C 5.1371 -2.8801 0.0 0
M  V30 14 C 5.3959 -1.9142 0.0 0
M  V30 15 C 4.1712 -3.1389 0.0 0
M  V30 16 N 4.6888 -1.2071 0.0 0
M  V30 17 C 6.3618 -1.6553 0.0 0
M  V30 18 S 3.4641 -2.4318 0.0 0
M  V30 19 C 4.43 -0.2411 0.0 0
M  V30 20 C 3.7229 -1.4659 0.0 0 CFG=1
M  V30 21 O 7.0689 -2.3625 0.0 0
M  V30 22 O 6.6206 -0.6894 0.0 0 CHG=-1
M  V30 23 O 4.93 0.6248 0.0 0
M  V30 24 C 3.4641 -0.5 0.0 0 CFG=1
M  V30 25 N 2.598 0.0 0.0 0
M  V30 26 C 1.732 -0.5 0.0 0
M  V30 27 O 1.732 -1.5 0.0 0
M  V30 28 C 0.866 0.0 0.0 0 CFG=1
M  V30 29 O 0.866 1.0 0.0 0
M  V30 30 C 0.0 -0.5 0.0 0
M  V30 31 C -0.866 0.0 0.0 0
M  V30 32 C 0.0 -1.4999 0.0 0
M  V30 33 C -1.732 -0.4999 0.0 0
M  V30 34 C -0.866 -1.9999 0.0 0
M  V30 35 C -1.732 -1.4999 0.0 0
M  V30 END ATOM
M  V30 BEGIN BOND
M  V30 1 2 1 2
M  V30 2 2 1 3
M  V30 3 1 1 4
M  V30 4 1 1 5
M  V30 5 1 5 6
M  V30 6 1 6 7
M  V30 7 1 6 8
M  V30 8 2 7 9
M  V30 9 1 8 10
M  V30 10 2 8 11
M  V30 11 1 10 12
M  V30 12 1 12 13
M  V30 13 2 13 14
M  V30 14 1 13 15
M  V30 15 1 14 16
M  V30 16 1 14 17
M  V30 17 1 15 18
M  V30 18 1 16 19
M  V30 19 1 20 16
M  V30 20 2 17 21
M  V30 21 1 17 22
M  V30 22 2 19 23
M  V30 23 1 24 19
M  V30 24 1 24 25 CFG=1
M  V30 25 1 25 26
M  V30 26 2 26 27
M  V30 27 1 28 26
M  V30 28 1 28 29 CFG=3
M  V30 29 1 28 30
M  V30 30 2 30 31
M  V30 31 1 30 32
M  V30 32 1 31 33
M  V30 33 2 32 34
M  V30 34 2 33 35
M  V30 35 1 9 11
M  V30 36 1 20 18 CFG=1
M  V30 37 1 20 24
M  V30 38 1 34 35
M  V30 END BOND
M  V30 BEGIN COLLECTION
M  V30 MDLV30/STERAC1 ATOMS=(3 20 24 28)
M  V30 END COLLECTION
M  V30 END CTAB
M  END
>  <Molecule Name>


>  <status>
DISCONTINUED

>  <cas>
61270-58-4

>  <name>
CEFONICID

>  <ID>
1039

>  <Smiles>
[O-]C(C1=C(CSc2nnnn2CS(O)(=O)=O)CS[C@@H]([C@H]2NC([C@H](c3ccccc3)O)=O)N1C2=O)=O

$$$$

Actelion Java MolfileCreator 2.0

  0  0  0  0  0  0              0 V3000
M  V30 BEGIN CTAB
M  V30 COUNTS 28 29 0 0 0
M  V30 BEGIN ATOM
M  V30 1 S 13.5284 -2.5606 0.0 0
M  V30 2 O 12.7784 -3.8597 0.0 0
M  V30 3 O 14.2784 -1.2616 0.0 0
M  V30 4 O 14.8275 -3.3106 0.0 0
M  V30 5 N 12.2294 -1.8106 0.0 0
M  V30 6 C 11.8412 -0.3617 0.0 0
M  V30 7 C 10.7805 -2.1988 0.0 0 CFG=2
M  V30 8 O 12.5912 0.9372 0.0 0
M  V30 9 C 10.3923 -0.75 0.0 0 CFG=2
M  V30 10 C 10.0305 -3.4979 0.0 0
M  V30 11 N 9.0932 0.0 0.0 0
M  V30 12 C 7.7942 -0.75 0.0 0
M  V30 13 O 7.7942 -2.25 0.0 0
M  V30 14 C 6.4952 0.0 0.0 0
M  V30 15 N 5.1961 -0.75 0.0 0
M  V30 16 C 6.4952 1.5 0.0 0
M  V30 17 O 5.1961 -2.25 0.0 0
M  V30 18 N 7.7087 2.3816 0.0 0
M  V30 19 C 5.2816 2.3816 0.0 0
M  V30 20 C 3.8971 -3.0 0.0 0
M  V30 21 C 7.2452 3.8082 0.0 0
M  V30 22 S 5.7451 3.8082 0.0 0
M  V30 23 C 3.8971 -4.5 0.0 0
M  V30 24 C 2.3971 -3.0 0.0 0
M  V30 25 C 3.1471 -1.7009 0.0 0
M  V30 26 N 8.1268 5.0217 0.0 0
M  V30 27 O 5.1961 -5.25 0.0 0
M  V30 28 O 2.598 -5.25 0.0 0 CHG=-1
M  V30 END ATOM
M  V30 BEGIN BOND
M  V30 1 2 1 2
M  V30 2 2 1 3
M  V30 3 1 1 4
M  V30 4 1 1 5
M  V30 5 1 5 6
M  V30 6 1 7 5
M  V30 7 2 6 8
M  V30 8 1 9 6
M  V30 9 1 7 10 CFG=1
M  V30 10 1 9 11 CFG=3
M  V30 11 1 11 12
M  V30 12 2 12 13
M  V30 13 1 12 14
M  V30 14 2 14 15
M  V30 15 1 14 16
M  V30 16 1 15 17
M  V30 17 1 16 18
M  V30 18 2 16 19
M  V30 19 1 17 20
M  V30 20 2 18 21
M  V30 21 1 19 22
M  V30 22 1 20 23
M  V30 23 1 20 24
M  V30 24 1 20 25
M  V30 25 1 21 26
M  V30 26 2 23 27
M  V30 27 1 23 28
M  V30 28 1 7 9
M  V30 29 1 21 22
M  V30 END BOND
M  V30 BEGIN COLLECTION
M  V30 MDLV30/STERAC1 ATOMS=(2 7 9)
M  V30 END COLLECTION
M  V30 END CTAB
M  END
>  <Molecule Name>


>  <status>
-

>  <cas>
78110-38-0

>  <name>
AZTREONAM

>  <ID>
1040

>  <Smiles>
C[C@@H]([C@@H](C1=O)NC(/C(/c2csc(N)n2)=N\OC(C)(C)C([O-])=O)=O)N1S(O)(=O)=O

$$$$

Actelion Java MolfileCreator 2.0

  0  0  0  0  0  0              0 V3000
M  V30 BEGIN CTAB
M  V30 COUNTS 36 39 0 0 0
M  V30 BEGIN ATOM
M  V30 1 S 7.7942 -3.6477 0.0 0
M  V30 2 C 8.1824 -2.1988 0.0 0 CFG=2
M  V30 3 C 8.8548 -4.7084 0.0 0
M  V30 4 N 9.6313 -1.8106 0.0 0
M  V30 5 C 7.7942 -0.75 0.0 0 CFG=2
M  V30 6 C 10.3037 -4.3202 0.0 0
M  V30 7 C 10.692 -2.8713 0.0 0
M  V30 8 C 9.2431 -0.3617 0.0 0
M  V30 9 N 6.4951 0.0 0.0 0
M  V30 10 C 11.3644 -5.3808 0.0 0
M  V30 11 C 12.1408 -2.483 0.0 0
M  V30 12 O 9.9931 0.9372 0.0 0
M  V30 13 C 5.1961 -0.75 0.0 0
M  V30 14 S 10.9762 -6.8297 0.0 0
M  V30 15 O 13.2015 -3.5437 0.0 0
M  V30 16 O 12.5291 -1.0342 0.0 0 CHG=-1
M  V30 17 O 5.1961 -2.25 0.0 0
M  V30 18 C 3.8971 0.0 0.0 0
M  V30 19 C 12.0368 -7.8904 0.0 0
M  V30 20 N 2.598 -0.75 0.0 0
M  V30 21 C 3.8971 1.5 0.0 0
M  V30 22 N 11.6486 -9.3393 0.0 0
M  V30 23 N 13.4857 -7.5021 0.0 0
M  V30 24 O 2.598 -2.25 0.0 0
M  V30 25 N 5.1106 2.3816 0.0 0
M  V30 26 C 2.6835 2.3816 0.0 0
M  V30 27 C 12.7093 -10.3999 0.0 0
M  V30 28 N 14.5464 -8.5628 0.0 0
M  V30 29 C 13.8739 -6.0533 0.0 0
M  V30 30 C 1.299 -3.0 0.0 0
M  V30 31 C 4.6471 3.8082 0.0 0
M  V30 32 S 3.1471 3.8082 0.0 0
M  V30 33 O 12.321 -11.8488 0.0 0
M  V30 34 C 14.1581 -10.0117 0.0 0
M  V30 35 N 5.5287 5.0217 0.0 0
M  V30 36 O 15.2188 -11.0723 0.0 0
M  V30 END ATOM
M  V30 BEGIN BOND
M  V30 1 1 2 1 CFG=1
M  V30 2 1 1 3
M  V30 3 1 2 4
M  V30 4 1 5 2
M  V30 5 1 3 6
M  V30 6 1 4 7
M  V30 7 1 4 8
M  V30 8 1 5 9 CFG=1
M  V30 9 1 6 10
M  V30 10 1 7 11
M  V30 11 2 8 12
M  V30 12 1 9 13
M  V30 13 1 10 14
M  V30 14 2 11 15
M  V30 15 1 11 16
M  V30 16 2 13 17
M  V30 17 1 13 18
M  V30 18 1 14 19
M  V30 19 2 18 20
M  V30 20 1 18 21
M  V30 21 2 19 22
M  V30 22 1 19 23
M  V30 23 1 20 24
M  V30 24 1 21 25
M  V30 25 2 21 26
M  V30 26 1 22 27
M  V30 27 1 23 28
M  V30 28 1 23 29
M  V30 29 1 24 30
M  V30 30 2 25 31
M  V30 31 1 26 32
M  V30 32 2 27 33
M  V30 33 1 27 34
M  V30 34 1 31 35
M  V30 35 2 34 36
M  V30 36 1 5 8
M  V30 37 2 6 7
M  V30 38 1 28 34
M  V30 39 1 31 32
M  V30 END BOND
M  V30 BEGIN COLLECTION
M  V30 MDLV30/STERAC1 ATOMS=(2 2 5)
M  V30 END COLLECTION
M  V30 END CTAB
M  END
>  <Molecule Name>


>  <status>
-

>  <cas>
73384-59-5

>  <name>
CEFTRIAXONE

>  <ID>
1041

>  <Smiles>
CN(C(SCC(CS[C@H]1[C@H]2NC(/C(/c3csc(N)n3)=N\OC)=O)=C(C([O-])=O)N1C2=O)=NC1=O)NC1=O

$$$$

Actelion Java MolfileCreator 2.0

  0  0  0  0  0  0              0 V3000
M  V30 BEGIN CTAB
M  V30 COUNTS 24 24 0 0 0
M  V30 BEGIN ATOM
M  V30 1 S 7.7942 -6.75 0.0 0
M  V30 2 C 9.0932 -7.5 0.0 0
M  V30 3 C 7.7942 -5.25 0.0 0
M  V30 4 C 9.0932 -9.0 0.0 0 CFG=2
M  V30 5 C 6.4952 -4.5 0.0 0
M  V30 6 N 7.7942 -9.75 0.0 0
M  V30 7 C 10.3923 -9.75 0.0 0
M  V30 8 C 6.4952 -3.0 0.0 0
M  V30 9 O 10.3923 -11.25 0.0 0
M  V30 10 O 11.6913 -9.0 0.0 0 CHG=-1
M  V30 11 C 5.1961 -2.25 0.0 0
M  V30 12 C 5.1961 -0.75 0.0 0
M  V30 13 C 3.8971 0.0 0.0 0
M  V30 14 N 2.598 -0.75 0.0 0
M  V30 15 C 3.8971 1.5 0.0 0
M  V30 16 C 1.299 0.0 0.0 0
M  V30 17 O 5.1961 2.25 0.0 0
M  V30 18 O 2.598 2.25 0.0 0 CHG=-1
M  V30 19 O 1.299 1.5 0.0 0
M  V30 20 C 0.0 -0.75 0.0 0 CFG=2
M  V30 21 C -1.5 -0.75 0.0 0
M  V30 22 C -0.75 -2.049 0.0 0
M  V30 23 C -2.2499 0.549 0.0 0
M  V30 24 C -2.9999 -0.75 0.0 0
M  V30 END ATOM
M  V30 BEGIN BOND
M  V30 1 1 1 2
M  V30 2 1 1 3
M  V30 3 1 4 2
M  V30 4 1 3 5
M  V30 5 1 4 6 CFG=1
M  V30 6 1 4 7
M  V30 7 1 5 8
M  V30 8 2 7 9
M  V30 9 1 7 10
M  V30 10 1 8 11
M  V30 11 1 11 12
M  V30 12 2 12 13
M  V30 13 1 13 14
M  V30 14 1 13 15
M  V30 15 1 14 16
M  V30 16 2 15 17
M  V30 17 1 15 18
M  V30 18 2 16 19
M  V30 19 1 20 16 CFG=1
M  V30 20 1 20 21
M  V30 21 1 20 22
M  V30 22 1 21 23
M  V30 23 1 21 24
M  V30 24 1 21 22
M  V30 END BOND
M  V30 BEGIN COLLECTION
M  V30 MDLV30/STERAC1 ATOMS=(2 4 20)
M  V30 END COLLECTION
M  V30 END CTAB
M  END
>  <Molecule Name>


>  <status>
-

>  <cas>
82009-34-5

>  <name>
CILASTATIN

>  <ID>
1042

>  <Smiles>
CC(C)(C1)[C@H]1C(N/C(/C([O-])=O)=C\CCCCSC[C@@H](C([O-])=O)N)=O

$$$$

Actelion Java MolfileCreator 2.0

  0  0  0  0  0  0              0 V3000
M  V30 BEGIN CTAB
M  V30 COUNTS 20 21 0 0 0
M  V30 BEGIN ATOM
M  V30 1 S 4.3301 0.0 0.0 0
M  V30 2 C 5.1961 -0.5 0.0 0
M  V30 3 C 3.4641 -0.5 0.0 0
M  V30 4 C 6.1096 -0.0932 0.0 0
M  V30 5 C 5.3006 -1.4945 0.0 0
M  V30 6 C 2.598 0.0 0.0 0
M  V30 7 N 6.7788 -0.8364 0.0 0
M  V30 8 C 6.3176 0.8848 0.0 0
M  V30 9 C 6.2788 -1.7024 0.0 0 CFG=2
M  V30 10 N 1.732 -0.5 0.0 0
M  V30 11 C 7.6448 -1.3364 0.0 0
M  V30 12 O 7.2686 1.1939 0.0 0
M  V30 13 O 5.5744 1.554 0.0 0 CHG=-1
M  V30 14 C 7.1448 -2.2024 0.0 0 CFG=1
M  V30 15 C 0.866 0.0 0.0 0
M  V30 16 O 8.6107 -1.0775 0.0 0
M  V30 17 C 7.4036 -3.1683 0.0 0 CFG=1
M  V30 18 N 0.0 -0.5 0.0 0
M  V30 19 O 6.6965 -3.8754 0.0 0
M  V30 20 C 8.3695 -3.4271 0.0 0
M  V30 END ATOM
M  V30 BEGIN BOND
M  V30 1 1 1 2
M  V30 2 1 1 3
M  V30 3 2 2 4
M  V30 4 1 2 5
M  V30 5 1 3 6
M  V30 6 1 4 7
M  V30 7 1 4 8
M  V30 8 1 9 5
M  V30 9 1 6 10
M  V30 10 1 7 11
M  V30 11 2 8 12
M  V30 12 1 8 13
M  V30 13 1 14 9
M  V30 14 2 10 15
M  V30 15 2 11 16
M  V30 16 1 17 14
M  V30 17 1 15 18
M  V30 18 1 17 19 CFG=3
M  V30 19 1 17 20
M  V30 20 1 9 7 CFG=3
M  V30 21 1 14 11 CFG=1
M  V30 END BOND
M  V30 BEGIN COLLECTION
M  V30 MDLV30/STERAC1 ATOMS=(3 9 14 17)
M  V30 END COLLECTION
M  V30 END CTAB
M  END
>  <Molecule Name>


>  <status>
-

>  <cas>
64221-86-9

>  <name>
IMIPENEM

>  <ID>
1043

>  <Smiles>
C[C@@H]([C@@H]([C@H](C1)N2C(C([O-])=O)=C1SCC/N=C/N)C2=O)O

$$$$
_c001
Actelion Java MolfileCreator 2.0

  0  0  0  0  0  0              0 V3000
M  V30 BEGIN CTAB
M  V30 COUNTS 35 36 0 0 0
M  V30 BEGIN ATOM
M  V30 1 O 14.2894 1.5 0.0 0
M  V30 2 C 14.2894 0.0 0.0 0
M  V30 3 O 12.9903 -0.75 0.0 0
M  V30 4 C 15.5884 -0.75 0.0 0
M  V30 5 C 11.6913 0.0 0.0 0
M  V30 6 C 16.8874 0.0 0.0 0
M  V30 7 C 10.3923 -0.75 0.0 0
M  V30 8 C 18.1865 -0.75 0.0 0
M  V30 9 C 16.8874 1.5 0.0 0
M  V30 10 C 9.0932 0.0 0.0 0
M  V30 11 C 19.4855 0.0 0.0 0 CFG=2
M  V30 12 C 7.7942 -0.75 0.0 0
M  V30 13 O 20.7846 -0.75 0.0 0
M  V30 14 C 19.4855 1.4999 0.0 0 CFG=2
M  V30 15 C 6.4951 0.0 0.0 0
M  V30 16 C 22.0836 0.0 0.0 0
M  V30 17 O 18.1865 2.2499 0.0 0
M  V30 18 C 20.7846 2.2499 0.0 0 CFG=1
M  V30 19 C 5.1961 -0.75 0.0 0
M  V30 20 C 22.0836 1.4999 0.0 0 CFG=1
M  V30 21 O 20.7846 3.75 0.0 0
M  V30 22 C 3.8971 0.0 0.0 0
M  V30 23 C 23.3826 2.2499 0.0 0
M  V30 24 C 2.598 -0.75 0.0 0
M  V30 25 C 23.3826 3.75 0.0 0 CFG=2
M  V30 26 C 1.299 0.0 0.0 0
M  V30 27 O 24.1326 5.049 0.0 0
M  V30 28 C 22.6326 5.049 0.0 0 CFG=1
M  V30 29 O 1.299 1.5 0.0 0
M  V30 30 O 0.0 -0.75 0.0 0 CHG=-1
M  V30 31 C 21.3336 5.799 0.0 0 CFG=2
M  V30 32 C 21.3336 7.299 0.0 0 CFG=1
M  V30 33 C 20.0346 5.049 0.0 0
M  V30 34 O 22.6326 8.049 0.0 0
M  V30 35 C 20.0346 8.049 0.0 0
M  V30 END ATOM
M  V30 BEGIN BOND
M  V30 1 2 1 2
M  V30 2 1 2 3
M  V30 3 1 2 4
M  V30 4 1 3 5
M  V30 5 2 4 6
M  V30 6 1 5 7
M  V30 7 1 6 8
M  V30 8 1 6 9
M  V30 9 1 7 10
M  V30 10 1 11 8 CFG=1
M  V30 11 1 10 12
M  V30 12 1 11 13
M  V30 13 1 14 11
M  V30 14 1 12 15
M  V30 15 1 13 16
M  V30 16 1 14 17 CFG=3
M  V30 17 1 18 14
M  V30 18 1 15 19
M  V30 19 1 20 16
M  V30 20 1 18 21 CFG=3
M  V30 21 1 19 22
M  V30 22 1 20 23 CFG=1
M  V30 23 1 22 24
M  V30 24 1 25 23 CFG=1
M  V30 25 1 24 26
M  V30 26 1 25 27
M  V30 27 1 28 25
M  V30 28 2 26 29
M  V30 29 1 26 30
M  V30 30 1 31 28
M  V30 31 1 32 31
M  V30 32 1 31 33 CFG=1
M  V30 33 1 32 34 CFG=3
M  V30 34 1 32 35
M  V30 35 1 18 20
M  V30 36 1 28 27 CFG=3
M  V30 END BOND
M  V30 BEGIN COLLECTION
M  V30 MDLV30/STERAC1 ATOMS=(8 11 14 18 20 25 28 31 32)
M  V30 END COLLECTION
M  V30 END CTAB
M  END
>  <Molecule Name>
_c001

>  <status>
-

>  <cas>
12650-69-0

>  <name>
MUPIROCIN

>  <ID>
1044

>  <Smiles>
C[C@@H]([C@H](C)O)[C@@H]1O[C@H]1C[C@@H](CO[C@@H](C/C(/C)=C/C(OCCCCCCCCC([O-])=O)=O)[C@@H]1O)[C@H]1O

$$$$

Actelion Java MolfileCreator 2.0

  0  0  0  0  0  0              0 V3000
M  V30 BEGIN CTAB
M  V30 COUNTS 34 37 0 0 0
M  V30 BEGIN ATOM
M  V30 1 S 3.4641 -2.4318 0.0 0
M  V30 2 C 3.7229 -1.4659 0.0 0 CFG=2
M  V30 3 C 4.1712 -3.1389 0.0 0
M  V30 4 N 4.6888 -1.2071 0.0 0
M  V30 5 C 3.4641 -0.5 0.0 0 CFG=2
M  V30 6 C 5.1371 -2.8801 0.0 0
M  V30 7 C 5.3959 -1.9142 0.0 0
M  V30 8 C 4.43 -0.2411 0.0 0
M  V30 9 N 2.598 0.0 0.0 0
M  V30 10 C 5.8442 -3.5872 0.0 0
M  V30 11 C 6.3618 -1.6553 0.0 0
M  V30 12 O 4.93 0.6248 0.0 0
M  V30 13 C 1.732 -0.5 0.0 0
M  V30 14 S 6.8101 -3.3284 0.0 0
M  V30 15 O 7.0689 -2.3625 0.0 0
M  V30 16 O 6.6206 -0.6894 0.0 0 CHG=-1
M  V30 17 O 1.732 -1.5 0.0 0
M  V30 18 C 0.866 0.0 0.0 0
M  V30 19 C 7.5172 -4.0355 0.0 0
M  V30 20 C 0.0 -0.5 0.0 0
M  V30 21 N 8.5049 -3.879 0.0 0
M  V30 22 N 7.3608 -5.0232 0.0 0
M  V30 23 N -0.9135 -0.0932 0.0 0
M  V30 24 C -0.1045 -1.4945 0.0 0
M  V30 25 N 8.9589 -4.7701 0.0 0
M  V30 26 N 8.2518 -5.4772 0.0 0
M  V30 27 C 6.4698 -5.4772 0.0 0
M  V30 28 C -1.5826 -0.8364 0.0 0
M  V30 29 S -1.0826 -1.7024 0.0 0
M  V30 30 C 5.6311 -4.9325 0.0 0
M  V30 31 N -2.5771 -0.7318 0.0 0
M  V30 32 N 4.7401 -5.3865 0.0 0
M  V30 33 C 4.6878 -6.3851 0.0 0
M  V30 34 C 3.9014 -4.8419 0.0 0
M  V30 END ATOM
M  V30 BEGIN BOND
M  V30 1 1 2 1 CFG=1
M  V30 2 1 1 3
M  V30 3 1 2 4
M  V30 4 1 5 2
M  V30 5 1 3 6
M  V30 6 1 4 7
M  V30 7 1 4 8
M  V30 8 1 5 9 CFG=1
M  V30 9 1 6 10
M  V30 10 1 7 11
M  V30 11 2 8 12
M  V30 12 1 9 13
M  V30 13 1 10 14
M  V30 14 2 11 15
M  V30 15 1 11 16
M  V30 16 2 13 17
M  V30 17 1 13 18
M  V30 18 1 14 19
M  V30 19 1 18 20
M  V30 20 2 19 21
M  V30 21 1 19 22
M  V30 22 1 20 23
M  V30 23 2 20 24
M  V30 24 1 21 25
M  V30 25 1 22 26
M  V30 26 1 22 27
M  V30 27 2 23 28
M  V30 28 1 24 29
M  V30 29 1 27 30
M  V30 30 1 28 31
M  V30 31 1 30 32
M  V30 32 1 32 33
M  V30 33 1 32 34
M  V30 34 1 5 8
M  V30 35 2 6 7
M  V30 36 2 25 26
M  V30 37 1 28 29
M  V30 END BOND
M  V30 BEGIN COLLECTION
M  V30 MDLV30/STERAC1 ATOMS=(2 2 5)
M  V30 END COLLECTION
M  V30 END CTAB
M  END
>  <Molecule Name>


>  <status>
DISCONTINUED

>  <cas>
61622-34-2

>  <name>
CEFOTIAM

>  <ID>
1045

>  <Smiles>
CN(C)CCn1nnnc1SCC(CS[C@H]1[C@H]2NC(Cc3csc(N)n3)=O)=C(C([O-])=O)N1C2=O

$$$$

Actelion Java MolfileCreator 2.0

  0  0  0  0  0  0              0 V3000
M  V30 BEGIN CTAB
M  V30 COUNTS 101 110 0 0 0
M  V30 BEGIN ATOM
M  V30 1 Cl 12.3678 -3.3823 0.0 0
M  V30 2 C 12.3678 -1.879 0.0 0
M  V30 3 C 13.6697 -1.1274 0.0 0
M  V30 4 C 11.0659 -1.1274 0.0 0
M  V30 5 O 14.3206 -3.0065 0.0 0
M  V30 6 C 13.638 0.3747 0.0 0
M  V30 7 C 11.0659 0.3758 0.0 0
M  V30 8 C 14.3206 -4.5098 0.0 0
M  V30 9 C 12.3678 1.1274 0.0 0
M  V30 10 C 9.1131 0.0 0.0 0 CFG=1
M  V30 11 C 15.6225 -5.2614 0.0 0
M  V30 12 C 13.0187 -5.2614 0.0 0
M  V30 13 O 8.5879 1.4085 0.0 0
M  V30 14 C 7.8112 -0.7516 0.0 0 CFG=1
M  V30 15 O 16.9243 -4.5098 0.0 0
M  V30 16 C 15.6225 -6.7647 0.0 0
M  V30 17 C 13.0187 -6.7647 0.0 0
M  V30 18 N 6.5093 0.0 0.0 0
M  V30 19 C 7.8112 -2.2549 0.0 0
M  V30 20 C 16.9243 -3.0065 0.0 0 CFG=2
M  V30 21 O 16.9243 -7.5163 0.0 0
M  V30 22 C 14.3206 -7.5163 0.0 0
M  V30 23 C 11.7168 -7.5163 0.0 0 CFG=1
M  V30 24 C 5.2075 -0.7516 0.0 0
M  V30 25 O 6.5093 -3.0065 0.0 0
M  V30 26 N 9.1131 -3.0065 0.0 0
M  V30 27 O 15.6225 -2.2549 0.0 0
M  V30 28 C 18.2262 -2.2549 0.0 0 CFG=2
M  V30 29 C 16.9243 -9.0196 0.0 0
M  V30 30 N 10.415 -6.7647 0.0 0
M  V30 31 C 11.7168 -9.0196 0.0 0
M  V30 32 O 5.2075 -2.2549 0.0 0
M  V30 33 C 3.9056 0.0 0.0 0 CFG=2
M  V30 34 C 9.1131 -4.5098 0.0 0 CFG=2
M  V30 35 C 15.6225 -0.7516 0.0 0 CFG=1
M  V30 36 O 19.5281 -3.0065 0.0 0
M  V30 37 C 18.2262 -0.7516 0.0 0 CFG=2
M  V30 38 C 18.2262 -9.7713 0.0 0
M  V30 39 C 15.6225 -9.7713 0.0 0
M  V30 40 C 10.415 -5.2614 0.0 0
M  V30 41 O 10.415 -9.7713 0.0 0
M  V30 42 N 13.0187 -9.7713 0.0 0
M  V30 43 N 3.9056 1.5032 0.0 0
M  V30 44 C 2.6037 -0.7516 0.0 0
M  V30 45 C 7.8112 -5.2614 0.0 0
M  V30 46 C 16.9243 0.0 0.0 0 CFG=2
M  V30 47 C 14.3709 0.0 0.0 0
M  V30 48 C 20.83 -2.2549 0.0 0 CFG=2
M  V30 49 O 19.5281 0.0 0.0 0
M  V30 50 Cl 19.5281 -9.0196 0.0 0
M  V30 51 C 18.2262 -11.2745 0.0 0
M  V30 52 C 15.7905 -11.1905 0.0 0
M  V30 53 O 11.7168 -4.5098 0.0 0
M  V30 54 C 13.0187 -11.2745 0.0 0 CFG=1
M  V30 55 C 2.6037 2.2549 0.0 0
M  V30 56 C 1.3018 0.0 0.0 0
M  V30 57 C 7.8112 -6.7647 0.0 0
M  V30 58 O 16.9243 1.5032 0.0 0
M  V30 59 O 14.3206 1.5032 0.0 0
M  V30 60 O 22.1318 -3.0065 0.0 0
M  V30 61 C 20.83 -0.7516 0.0 0
M  V30 62 C 16.9243 -12.0262 0.0 0
M  V30 63 C 14.3206 -12.0262 0.0 0
M  V30 64 C 11.7168 -12.0262 0.0 0
M  V30 65 C 1.3018 1.5032 0.0 0
M  V30 66 C 0.0 -0.7516 0.0 0
M  V30 67 O 9.1131 -7.5163 0.0 0
M  V30 68 N 6.5093 -7.5163 0.0 0
M  V30 69 C 23.4337 -2.2549 0.0 0 CFG=2
M  V30 70 C 22.1318 0.0 0.0 0 CFG=1
M  V30 71 C 16.9243 -13.5294 0.0 0 CFG=1
M  V30 72 O 15.2863 -11.4426 0.0 0
M  V30 73 N 14.3974 -13.299 0.0 0
M  V30 74 C 11.5291 -13.5738 0.0 0
M  V30 75 C 10.415 -11.2745 0.0 0
M  V30 76 C 23.4337 -0.7516 0.0 0 CFG=2
M  V30 77 C 24.7356 -3.0065 0.0 0
M  V30 78 N 22.8835 1.3018 0.0 0
M  V30 79 C 21.3802 1.3018 0.0 0
M  V30 80 O 18.2262 -14.2811 0.0 0
M  V30 81 C 15.6225 -14.2811 0.0 0 CFG=2
M  V30 82 C 10.415 -14.2811 0.0 0
M  V30 83 C 9.1131 -12.0262 0.0 0
M  V30 84 O 24.7356 0.0 0.0 0
M  V30 85 C 15.6225 -15.7844 0.0 0
M  V30 86 C 10.415 -15.7844 0.0 0
M  V30 87 C 9.1131 -13.5294 0.0 0
M  V30 88 O 16.9243 -16.536 0.0 0
M  V30 89 N 14.3206 -16.536 0.0 0
M  V30 90 C 9.1131 -16.536 0.0 0
M  V30 91 C 11.7168 -16.536 0.0 0
M  V30 92 O 7.8112 -14.2811 0.0 0
M  V30 93 C 13.0187 -15.7844 0.0 0 CFG=1
M  V30 94 O 7.8112 -15.7844 0.0 0
M  V30 95 C 9.1131 -18.0393 0.0 0
M  V30 96 C 11.7168 -18.0393 0.0 0
M  V30 97 C 13.0187 -14.2811 0.0 0
M  V30 98 C 10.415 -18.7909 0.0 0
M  V30 99 O 14.2366 -13.7816 0.0 0
M  V30 100 O 12.0728 -13.4454 0.0 0 CHG=-1
M  V30 101 O 10.415 -20.2942 0.0 0
M  V30 END ATOM
M  V30 BEGIN BOND
M  V30 1 1 1 2
M  V30 2 2 2 3
M  V30 3 1 2 4
M  V30 4 1 3 5
M  V30 5 1 3 6
M  V30 6 2 4 7
M  V30 7 1 5 8
M  V30 8 2 6 9
M  V30 9 1 10 7
M  V30 10 2 8 11
M  V30 11 1 8 12
M  V30 12 1 10 13 CFG=3
M  V30 13 1 14 10
M  V30 14 1 11 15
M  V30 15 1 11 16
M  V30 16 2 12 17
M  V30 17 1 14 18 CFG=3
M  V30 18 1 14 19
M  V30 19 1 20 15 CFG=3
M  V30 20 1 16 21
M  V30 21 2 16 22
M  V30 22 1 23 17
M  V30 23 1 18 24
M  V30 24 2 19 25
M  V30 25 1 19 26
M  V30 26 1 20 27
M  V30 27 1 28 20
M  V30 28 1 21 29
M  V30 29 1 23 30 CFG=3
M  V30 30 1 23 31
M  V30 31 2 24 32
M  V30 32 1 33 24
M  V30 33 1 34 26
M  V30 34 1 35 27
M  V30 35 1 28 36 CFG=1
M  V30 36 1 37 28
M  V30 37 2 29 38
M  V30 38 1 29 39
M  V30 39 1 30 40
M  V30 40 2 31 41
M  V30 41 1 31 42
M  V30 42 1 33 43 CFG=1
M  V30 43 1 33 44
M  V30 44 1 34 45 CFG=3
M  V30 45 1 46 35
M  V30 46 1 35 47 CFG=3
M  V30 47 1 48 36 CFG=1
M  V30 48 1 37 49 CFG=3
M  V30 49 1 38 50
M  V30 50 1 38 51
M  V30 51 2 39 52
M  V30 52 2 40 53
M  V30 53 1 54 42 CFG=1
M  V30 54 1 43 55
M  V30 55 1 44 56
M  V30 56 1 45 57
M  V30 57 1 46 58 CFG=1
M  V30 58 1 47 59
M  V30 59 1 48 60
M  V30 60 1 48 61
M  V30 61 2 51 62
M  V30 62 1 54 63
M  V30 63 1 54 64
M  V30 64 1 56 65
M  V30 65 1 56 66
M  V30 66 2 57 67
M  V30 67 1 57 68
M  V30 68 1 69 60
M  V30 69 1 70 61
M  V30 70 1 71 62
M  V30 71 2 63 72
M  V30 72 1 63 73
M  V30 73 2 64 74
M  V30 74 1 64 75
M  V30 75 1 76 69
M  V30 76 1 69 77 CFG=3
M  V30 77 1 70 78 CFG=3
M  V30 78 1 70 79
M  V30 79 1 71 80 CFG=1
M  V30 80 1 81 71
M  V30 81 1 82 74 CFG=1
M  V30 82 2 75 83
M  V30 83 1 76 84 CFG=3
M  V30 84 1 81 85
M  V30 85 1 82 86
M  V30 86 2 82 87
M  V30 87 2 85 88
M  V30 88 1 85 89
M  V30 89 2 86 90
M  V30 90 1 86 91
M  V30 91 1 87 92
M  V30 92 1 93 89
M  V30 93 1 90 94
M  V30 94 1 90 95
M  V30 95 2 91 96
M  V30 96 1 93 97 CFG=1
M  V30 97 2 95 98
M  V30 98 2 97 99
M  V30 99 1 97 100
M  V30 100 1 98 101
M  V30 101 1 7 9
M  V30 102 1 17 22
M  V30 103 1 34 40
M  V30 104 1 37 46
M  V30 105 1 52 62
M  V30 106 1 70 76
M  V30 107 1 81 73 CFG=1
M  V30 108 1 83 87
M  V30 109 1 91 93
M  V30 110 1 96 98
M  V30 END BOND
M  V30 BEGIN COLLECTION
M  V30 MDLV30/STEABS BONDS=(1 85)
M  V30 MDLV30/STERAC1 ATOMS=(18 10 14 20 23 28 33 34 35 37 46 48 54 69 70 71 76 81 93)
M  V30 END COLLECTION
M  V30 END CTAB
M  END
>  <Molecule Name>


>  <status>
-

>  <cas>
1404-90-6

>  <name>
VANCOMYCIN

>  <ID>
1046

>  <Smiles>
CC(C)C[C@H](C(N[C@H]([C@@H](c(cc1)cc(Cl)c1Oc(cc([C@H](C(N[C@H](c(cc1)cc(-c(c([C@@H](C([O-])=O)NC([C@H]([C@@H](c(cc2)c3)O)N4)=O)cc(O)c5)c5O)c1O)C4=O)=O)NC([C@H](CC(N)=O)N1)=O)cc4Oc2c3Cl)c4O[C@@H]([C@@H]([C@H]2O)O[C@@H](C[C@]3(C)N)O[C@@H](C)[C@H]3O)O[C@H](CO)[C@H]2O)O)C1=O)=O)NC

$$$$

Actelion Java MolfileCreator 2.0

  0  0  0  0  0  0              0 V3000
M  V30 BEGIN CTAB
M  V30 COUNTS 30 32 0 0 0
M  V30 BEGIN ATOM
M  V30 1 S 10.3923 -3.6477 0.0 0
M  V30 2 C 10.7805 -2.1988 0.0 0 CFG=2
M  V30 3 C 11.4529 -4.7084 0.0 0
M  V30 4 N 12.2294 -1.8106 0.0 0
M  V30 5 C 10.3923 -0.75 0.0 0 CFG=2
M  V30 6 C 12.9018 -4.3202 0.0 0
M  V30 7 C 13.29 -2.8713 0.0 0
M  V30 8 C 11.8411 -0.3617 0.0 0
M  V30 9 N 9.0932 0.0 0.0 0
M  V30 10 C 13.9625 -5.3808 0.0 0
M  V30 11 C 14.7389 -2.483 0.0 0
M  V30 12 O 12.5911 0.9372 0.0 0
M  V30 13 C 7.7942 -0.75 0.0 0
M  V30 14 C 15.4114 -4.9926 0.0 0
M  V30 15 O 15.7996 -3.5437 0.0 0
M  V30 16 O 15.1271 -1.0342 0.0 0 CHG=-1
M  V30 17 O 7.7942 -2.25 0.0 0
M  V30 18 C 6.4951 0.0 0.0 0
M  V30 19 N 5.1961 -0.75 0.0 0
M  V30 20 C 6.4951 1.5 0.0 0
M  V30 21 O 5.1961 -2.25 0.0 0
M  V30 22 N 7.7087 2.3816 0.0 0
M  V30 23 C 5.2816 2.3816 0.0 0
M  V30 24 C 3.8971 -2.9999 0.0 0
M  V30 25 C 7.2451 3.8082 0.0 0
M  V30 26 S 5.7451 3.8082 0.0 0
M  V30 27 C 3.8971 -4.5 0.0 0
M  V30 28 N 8.1268 5.0217 0.0 0
M  V30 29 O 5.1961 -5.25 0.0 0
M  V30 30 O 2.598 -5.25 0.0 0 CHG=-1
M  V30 END ATOM
M  V30 BEGIN BOND
M  V30 1 1 2 1 CFG=1
M  V30 2 1 1 3
M  V30 3 1 2 4
M  V30 4 1 5 2
M  V30 5 1 3 6
M  V30 6 1 4 7
M  V30 7 1 4 8
M  V30 8 1 5 9 CFG=1
M  V30 9 1 6 10
M  V30 10 1 7 11
M  V30 11 2 8 12
M  V30 12 1 9 13
M  V30 13 2 10 14
M  V30 14 2 11 15
M  V30 15 1 11 16
M  V30 16 2 13 17
M  V30 17 1 13 18
M  V30 18 2 18 19
M  V30 19 1 18 20
M  V30 20 1 19 21
M  V30 21 1 20 22
M  V30 22 2 20 23
M  V30 23 1 21 24
M  V30 24 2 22 25
M  V30 25 1 23 26
M  V30 26 1 24 27
M  V30 27 1 25 28
M  V30 28 2 27 29
M  V30 29 1 27 30
M  V30 30 1 5 8
M  V30 31 2 6 7
M  V30 32 1 25 26
M  V30 END BOND
M  V30 BEGIN COLLECTION
M  V30 MDLV30/STERAC1 ATOMS=(2 2 5)
M  V30 END COLLECTION
M  V30 END CTAB
M  END
>  <Molecule Name>


>  <status>
-

>  <cas>
79350-37-1

>  <name>
CEFIXIME

>  <ID>
1047

>  <Smiles>
C=CC(CS[C@H]1[C@H]2NC(/C(/c3csc(N)n3)=N\OCC([O-])=O)=O)=C(C([O-])=O)N1C2=O

$$$$

Actelion Java MolfileCreator 2.0

  0  0  0  0  0  0              0 V3000
M  V30 BEGIN CTAB
M  V30 COUNTS 42 46 0 0 0
M  V30 BEGIN ATOM
M  V30 1 S 5.1961 -2.4318 0.0 0
M  V30 2 C 5.4549 -1.4659 0.0 0 CFG=2
M  V30 3 C 5.9032 -3.1389 0.0 0
M  V30 4 N 6.4208 -1.2071 0.0 0
M  V30 5 C 5.1961 -0.5 0.0 0 CFG=2
M  V30 6 C 6.8691 -2.8801 0.0 0
M  V30 7 C 7.128 -1.9142 0.0 0
M  V30 8 C 6.162 -0.2411 0.0 0
M  V30 9 N 4.3301 0.0 0.0 0
M  V30 10 C 7.5762 -3.5872 0.0 0
M  V30 11 C 8.0939 -1.6553 0.0 0
M  V30 12 O 6.662 0.6248 0.0 0
M  V30 13 C 3.4641 -0.5 0.0 0
M  V30 14 S 7.3174 -4.5531 0.0 0
M  V30 15 O 8.801 -2.3625 0.0 0
M  V30 16 O 8.3527 -0.6894 0.0 0 CHG=-1
M  V30 17 O 3.4641 -1.5 0.0 0
M  V30 18 C 2.598 0.0 0.0 0 CFG=1
M  V30 19 C 8.0245 -5.2602 0.0 0
M  V30 20 N 1.732 -0.5 0.0 0
M  V30 21 C 2.598 1.0 0.0 0
M  V30 22 N 7.8681 -6.2479 0.0 0
M  V30 23 N 9.0122 -5.1038 0.0 0
M  V30 24 C 0.866 0.0 0.0 0
M  V30 25 C 3.4641 1.5 0.0 0
M  V30 26 C 1.732 1.4999 0.0 0
M  V30 27 N 8.7591 -6.7019 0.0 0
M  V30 28 N 9.4662 -5.9948 0.0 0
M  V30 29 C 9.4662 -4.2128 0.0 0
M  V30 30 O 0.866 1.0 0.0 0
M  V30 31 C 0.0 -0.5 0.0 0
M  V30 32 C 3.4641 2.5 0.0 0
M  V30 33 C 1.732 2.5 0.0 0
M  V30 34 C -0.866 0.0 0.0 0
M  V30 35 C 0.0 -1.4999 0.0 0
M  V30 36 C 2.598 3.0 0.0 0
M  V30 37 O -0.866 1.0 0.0 0
M  V30 38 C -1.732 -0.4999 0.0 0
M  V30 39 N -0.866 -1.9999 0.0 0
M  V30 40 O 2.598 4.0 0.0 0
M  V30 41 C -1.732 -1.4999 0.0 0
M  V30 42 C -2.598 -1.9999 0.0 0
M  V30 END ATOM
M  V30 BEGIN BOND
M  V30 1 1 2 1 CFG=1
M  V30 2 1 1 3
M  V30 3 1 2 4
M  V30 4 1 5 2
M  V30 5 1 3 6
M  V30 6 1 4 7
M  V30 7 1 4 8
M  V30 8 1 5 9 CFG=1
M  V30 9 1 6 10
M  V30 10 1 7 11
M  V30 11 2 8 12
M  V30 12 1 9 13
M  V30 13 1 10 14
M  V30 14 2 11 15
M  V30 15 1 11 16
M  V30 16 2 13 17
M  V30 17 1 18 13
M  V30 18 1 14 19
M  V30 19 1 18 20 CFG=1
M  V30 20 1 18 21
M  V30 21 2 19 22
M  V30 22 1 19 23
M  V30 23 1 20 24
M  V30 24 2 21 25
M  V30 25 1 21 26
M  V30 26 1 22 27
M  V30 27 1 23 28
M  V30 28 1 23 29
M  V30 29 2 24 30
M  V30 30 1 24 31
M  V30 31 1 25 32
M  V30 32 2 26 33
M  V30 33 1 31 34
M  V30 34 2 31 35
M  V30 35 2 32 36
M  V30 36 2 34 37
M  V30 37 1 34 38
M  V30 38 1 35 39
M  V30 39 1 36 40
M  V30 40 2 38 41
M  V30 41 1 41 42
M  V30 42 1 5 8
M  V30 43 2 6 7
M  V30 44 2 27 28
M  V30 45 1 33 36
M  V30 46 1 39 41
M  V30 END BOND
M  V30 BEGIN COLLECTION
M  V30 MDLV30/STERAC1 ATOMS=(3 2 5 18)
M  V30 END COLLECTION
M  V30 END CTAB
M  END
>  <Molecule Name>


>  <status>
DISCONTINUED

>  <cas>
70797-11-4

>  <name>
CEFPIRAMIDE

>  <ID>
1048

>  <Smiles>
CC(NC=C1C(N[C@H](C(N[C@H]([C@@H]2SCC(CSc3nnnn3C)=C(C([O-])=O)N22)C2=O)=O)c(cc2)ccc2O)=O)=CC1=O

$$$$

Actelion Java MolfileCreator 2.0

  0  0  0  0  0  0              0 V3000
M  V30 BEGIN CTAB
M  V30 COUNTS 30 32 0 0 0
M  V30 BEGIN ATOM
M  V30 1 S -2.5095 0.6988 0.0 0
M  V30 2 C -1.4488 -0.3617 0.0 0 CFG=1
M  V30 3 C -3.9584 0.3106 0.0 0
M  V30 4 N -1.8371 -1.8106 0.0 0
M  V30 5 C 0.0 -0.75 0.0 0 CFG=1
M  V30 6 C -4.3466 -1.1382 0.0 0
M  V30 7 C -3.286 -2.1988 0.0 0
M  V30 8 C -0.3882 -2.1988 0.0 0
M  V30 9 O 1.19 -1.6631 0.0 0
M  V30 10 N 1.299 0.0 0.0 0
M  V30 11 C -5.7955 -1.5264 0.0 0
M  V30 12 C -3.6742 -3.6477 0.0 0
M  V30 13 O 0.3617 -3.4979 0.0 0
M  V30 14 C 2.5758 -1.0891 0.0 0
M  V30 15 C 1.299 1.4999 0.0 0
M  V30 16 S -6.8562 -0.4657 0.0 0
M  V30 17 O -5.1231 -4.036 0.0 0
M  V30 18 O -2.6135 -4.7084 0.0 0 CHG=-1
M  V30 19 O 0.0 2.25 0.0 0
M  V30 20 C 2.598 2.2499 0.0 0
M  V30 21 C -8.3051 -0.854 0.0 0
M  V30 22 S 2.598 3.75 0.0 0
M  V30 23 N -9.4708 0.0899 0.0 0
M  V30 24 N -8.8426 -2.2543 0.0 0
M  V30 25 C 3.8971 4.5 0.0 0
M  V30 26 N -10.7288 -0.727 0.0 0
M  V30 27 N -10.3406 -2.1758 0.0 0
M  V30 28 C -8.0256 -3.5124 0.0 0
M  V30 29 C 5.1961 3.7499 0.0 0
M  V30 30 N 6.4951 2.9999 0.0 0
M  V30 END ATOM
M  V30 BEGIN BOND
M  V30 1 1 2 1 CFG=3
M  V30 2 1 1 3
M  V30 3 1 2 4
M  V30 4 1 5 2
M  V30 5 1 3 6
M  V30 6 1 4 7
M  V30 7 1 4 8
M  V30 8 1 5 9 CFG=3
M  V30 9 1 5 10
M  V30 10 1 6 11
M  V30 11 1 7 12
M  V30 12 2 8 13
M  V30 13 1 9 14
M  V30 14 1 10 15
M  V30 15 1 11 16
M  V30 16 2 12 17
M  V30 17 1 12 18
M  V30 18 2 15 19
M  V30 19 1 15 20
M  V30 20 1 16 21
M  V30 21 1 20 22
M  V30 22 2 21 23
M  V30 23 1 21 24
M  V30 24 1 22 25
M  V30 25 1 23 26
M  V30 26 1 24 27
M  V30 27 1 24 28
M  V30 28 1 25 29
M  V30 29 3 29 30
M  V30 30 1 5 8
M  V30 31 2 6 7
M  V30 32 2 26 27
M  V30 END BOND
M  V30 BEGIN COLLECTION
M  V30 MDLV30/STERAC1 ATOMS=(2 2 5)
M  V30 END COLLECTION
M  V30 END CTAB
M  END
>  <Molecule Name>


>  <status>
DISCONTINUED

>  <cas>
56796-20-4

>  <name>
CEFMETAZOLE

>  <ID>
1049

>  <Smiles>
Cn1nnnc1SCC(CS[C@@H]1[C@]2(NC(CSCC#N)=O)OC)=C(C([O-])=O)N1C2=O

$$$$

Actelion Java MolfileCreator 2.0

  0  0  0  0  0  0              0 V3000
M  V30 BEGIN CTAB
M  V30 COUNTS 36 40 0 0 0
M  V30 BEGIN ATOM
M  V30 1 O 2.598 3.0 0.0 0
M  V30 2 C 3.4641 2.5 0.0 0
M  V30 3 C 3.4641 1.4999 0.0 0
M  V30 4 C 4.3301 3.0 0.0 0
M  V30 5 C 2.598 1.0 0.0 0
M  V30 6 C 4.3301 0.9999 0.0 0
M  V30 7 C 5.1961 2.4999 0.0 0
M  V30 8 C 4.3301 4.0 0.0 0
M  V30 9 O 1.732 1.5 0.0 0
M  V30 10 C 2.598 0.0 0.0 0
M  V30 11 C 5.1961 1.4999 0.0 0
M  V30 12 C 4.3301 0.0 0.0 0
M  V30 13 C 6.0621 3.0 0.0 0
M  V30 14 C 5.1961 4.5 0.0 0
M  V30 15 C 3.4641 -0.5 0.0 0
M  V30 16 C 1.732 -0.5 0.0 0 CFG=2
M  V30 17 O 6.0621 0.9999 0.0 0
M  V30 18 O 5.1961 -0.5 0.0 0
M  V30 19 C 6.0621 3.9999 0.0 0
M  V30 20 C 3.4641 -1.4999 0.0 0
M  V30 21 O 0.866 0.0 0.0 0
M  V30 22 C 1.732 -1.5 0.0 0
M  V30 23 C 2.598 -1.9999 0.0 0 CFG=2
M  V30 24 C 0.0 -0.5 0.0 0 CFG=1
M  V30 25 O 3.4641 -2.4999 0.0 0
M  V30 26 C 2.598 -2.9999 0.0 0
M  V30 27 O -0.866 0.0 0.0 0
M  V30 28 C 0.0 -1.4999 0.0 0
M  V30 29 O 3.4641 -3.5 0.0 0
M  V30 30 C 1.732 -3.4999 0.0 0
M  V30 31 C -1.732 -0.4999 0.0 0 CFG=1
M  V30 32 C -0.866 -1.9999 0.0 0 CFG=2
M  V30 33 C -1.732 -1.4999 0.0 0 CFG=1
M  V30 34 C -2.598 0.0 0.0 0
M  V30 35 N -0.866 -2.9999 0.0 0
M  V30 36 O -2.598 -1.9999 0.0 0
M  V30 END ATOM
M  V30 BEGIN BOND
M  V30 1 2 1 2
M  V30 2 1 2 3
M  V30 3 1 2 4
M  V30 4 2 3 5
M  V30 5 1 3 6
M  V30 6 2 4 7
M  V30 7 1 4 8
M  V30 8 1 5 9
M  V30 9 1 5 10
M  V30 10 1 6 11
M  V30 11 2 6 12
M  V30 12 1 7 13
M  V30 13 2 8 14
M  V30 14 2 10 15
M  V30 15 1 16 10
M  V30 16 2 11 17
M  V30 17 1 12 18
M  V30 18 2 13 19
M  V30 19 1 15 20
M  V30 20 1 16 21 CFG=1
M  V30 21 1 16 22
M  V30 22 1 23 20
M  V30 23 1 24 21 CFG=3
M  V30 24 1 23 25 CFG=1
M  V30 25 1 23 26
M  V30 26 1 24 27
M  V30 27 1 24 28
M  V30 28 2 26 29
M  V30 29 1 26 30
M  V30 30 1 31 27
M  V30 31 1 32 28
M  V30 32 1 33 31
M  V30 33 1 31 34 CFG=1
M  V30 34 1 32 35 CFG=1
M  V30 35 1 33 36 CFG=1
M  V30 36 1 7 11
M  V30 37 1 12 15
M  V30 38 1 14 19
M  V30 39 1 22 23
M  V30 40 1 32 33
M  V30 END BOND
M  V30 BEGIN COLLECTION
M  V30 MDLV30/STERAC1 ATOMS=(6 16 23 24 31 32 33)
M  V30 END COLLECTION
M  V30 END CTAB
M  END
>  <Molecule Name>


>  <status>
-

>  <cas>
58957-92-9

>  <name>
IDARUBICIN

>  <ID>
1050

>  <Smiles>
C[C@H]([C@@H]([C@@H](C1)N)O)O[C@@H]1O[C@H](C[C@](C1)(C(C)=O)O)c(c(O)c2C(c3c4cccc3)=O)c1c(O)c2C4=O

$$$$

Actelion Java MolfileCreator 2.0

  0  0  0  0  0  0              0 V3000
M  V30 BEGIN CTAB
M  V30 COUNTS 52 54 0 0 0
M  V30 BEGIN ATOM
M  V30 1 O 3.4641 -1.3749 0.0 0
M  V30 2 C 3.504 -0.2789 0.0 0
M  V30 3 O 4.456 0.0669 0.0 0
M  V30 4 C 2.4465 -0.1527 0.0 0 CFG=2
M  V30 5 C 5.1961 -0.4999 0.0 0 CFG=2
M  V30 6 C 1.6979 -0.6286 0.0 0 CFG=2
M  V30 7 C 2.3954 0.9105 0.0 0
M  V30 8 C 5.1961 -1.4999 0.0 0 CFG=2
M  V30 9 C 6.0621 0.0 0.0 0
M  V30 10 O 0.866 0.0 0.0 0
M  V30 11 C 1.732 -1.5 0.0 0 CFG=2
M  V30 12 O 4.1961 -1.4999 0.0 0
M  V30 13 C 6.0621 -1.9999 0.0 0 CFG=1
M  V30 14 C 4.7479 -2.347 0.0 0
M  V30 15 C 6.0621 1.0 0.0 0
M  V30 16 C 0.0 -0.5 0.0 0 CFG=1
M  V30 17 C 2.598 -1.9999 0.0 0 CFG=2
M  V30 18 C 0.866 -2.0 0.0 0
M  V30 19 O 6.9282 -1.4999 0.0 0
M  V30 20 C 6.0621 -2.9999 0.0 0 CFG=1
M  V30 21 O -0.866 0.0 0.0 0
M  V30 22 C 0.0 -1.4999 0.0 0
M  V30 23 O 3.4641 -1.6874 0.0 0
M  V30 24 C 2.598 -2.9999 0.0 0 CFG=1
M  V30 25 C 5.1961 -3.4999 0.0 0
M  V30 26 C 6.9282 -3.4999 0.0 0
M  V30 27 C -1.732 -0.4999 0.0 0 CFG=1
M  V30 28 C -0.866 -1.9999 0.0 0 CFG=1
M  V30 29 C 3.3697 -0.5874 0.0 0 CFG=1
M  V30 30 O 1.732 -3.5 0.0 0
M  V30 31 C 3.4641 -3.4999 0.0 0
M  V30 32 C 1.732 -2.5 0.0 0
M  V30 33 O 5.1961 -4.4999 0.0 0
M  V30 34 C 4.3301 -2.9999 0.0 0 CFG=2
M  V30 35 C -1.732 -1.4999 0.0 0 CFG=2
M  V30 36 C -2.598 0.0 0.0 0
M  V30 37 O -0.866 -2.9999 0.0 0
M  V30 38 C -1.732 -2.4999 0.0 0
M  V30 39 O 4.3206 -0.2278 0.0 0
M  V30 40 C 2.6948 0.0911 0.0 0 CFG=1
M  V30 41 C 0.866 -3.0 0.0 0
M  V30 42 C 4.3301 -1.9999 0.0 0
M  V30 43 O -2.598 -1.9999 0.0 0
M  V30 44 C -1.732 -3.4999 0.0 0
M  V30 45 C 4.3301 1.0 0.0 0 CFG=2
M  V30 46 O 1.792 -0.274 0.0 0
M  V30 47 C 2.7254 1.0562 0.0 0 CFG=1
M  V30 48 C 3.4641 1.5 0.0 0
M  V30 49 C 5.1961 1.5 0.0 0
M  V30 50 N 1.732 1.5 0.0 0
M  V30 51 C 1.732 2.5 0.0 0
M  V30 52 C 0.866 1.0 0.0 0
M  V30 END ATOM
M  V30 BEGIN BOND
M  V30 1 2 1 2
M  V30 2 1 2 3
M  V30 3 1 4 2
M  V30 4 1 5 3
M  V30 5 1 6 4
M  V30 6 1 4 7 CFG=3
M  V30 7 1 8 5
M  V30 8 1 5 9 CFG=1
M  V30 9 1 6 10 CFG=1
M  V30 10 1 11 6
M  V30 11 1 8 12 CFG=1
M  V30 12 1 13 8
M  V30 13 1 8 14
M  V30 14 1 9 15
M  V30 15 1 16 10 CFG=3
M  V30 16 1 17 11
M  V30 17 1 11 18 CFG=3
M  V30 18 1 13 19 CFG=1
M  V30 19 1 20 13
M  V30 20 1 16 21
M  V30 21 1 16 22
M  V30 22 1 17 23 CFG=3
M  V30 23 1 24 17
M  V30 24 1 20 25
M  V30 25 1 20 26 CFG=3
M  V30 26 1 27 21
M  V30 27 1 28 22
M  V30 28 1 29 23 CFG=3
M  V30 29 1 24 30
M  V30 30 1 24 31
M  V30 31 1 24 32 CFG=1
M  V30 32 2 25 33
M  V30 33 1 34 25
M  V30 34 1 35 27
M  V30 35 1 27 36 CFG=1
M  V30 36 1 28 37
M  V30 37 1 28 38 CFG=1
M  V30 38 1 29 39
M  V30 39 1 40 29
M  V30 40 1 30 41
M  V30 41 1 34 42 CFG=3
M  V30 42 1 35 43 CFG=3
M  V30 43 1 37 44
M  V30 44 1 45 39
M  V30 45 1 40 46 CFG=1
M  V30 46 1 47 40
M  V30 47 1 45 48
M  V30 48 1 45 49 CFG=3
M  V30 49 1 47 50 CFG=3
M  V30 50 1 50 51
M  V30 51 1 50 52
M  V30 52 1 28 35
M  V30 53 1 31 34
M  V30 54 1 47 48
M  V30 END BOND
M  V30 BEGIN COLLECTION
M  V30 MDLV30/STERAC1 ATOMS=(18 4 5 6 8 11 13 16 17 20 24 27 28 29 34 35 40 45 47)
M  V30 END COLLECTION
M  V30 END CTAB
M  END
>  <Molecule Name>


>  <status>
-

>  <cas>
81103-11-9

>  <name>
CLARITHROMYCIN

>  <ID>
1051

>  <Smiles>
CC[C@@H]([C@@](C)([C@H]([C@H](C)C([C@@H](C)C[C@@](C)([C@H]([C@H](C)[C@H]([C@@H]1C)O[C@H](C[C@]2(C)OC)O[C@H](C)[C@H]2O)O[C@H]([C@H]2O)O[C@@H](C)C[C@H]2N(C)C)OC)=O)O)O)OC1=O

$$$$

Actelion Java MolfileCreator 2.0

  0  0  0  0  0  0              0 V3000
M  V30 BEGIN CTAB
M  V30 COUNTS 27 29 0 0 0
M  V30 BEGIN ATOM
M  V30 1 S 3.4641 -2.4318 0.0 0
M  V30 2 C 3.7229 -1.4659 0.0 0 CFG=2
M  V30 3 C 4.1712 -3.1389 0.0 0
M  V30 4 N 4.6888 -1.2071 0.0 0
M  V30 5 C 3.4641 -0.5 0.0 0 CFG=2
M  V30 6 C 5.1371 -2.8801 0.0 0
M  V30 7 C 5.3959 -1.9142 0.0 0
M  V30 8 C 4.43 -0.2411 0.0 0
M  V30 9 N 2.598 0.0 0.0 0
M  V30 10 C 5.8442 -3.5872 0.0 0
M  V30 11 C 6.3618 -1.6553 0.0 0
M  V30 12 O 4.93 0.6248 0.0 0
M  V30 13 C 1.732 -0.5 0.0 0
M  V30 14 C 5.5854 -4.5531 0.0 0
M  V30 15 O 7.0689 -2.3625 0.0 0
M  V30 16 O 6.6206 -0.6894 0.0 0 CHG=-1
M  V30 17 O 1.732 -1.5 0.0 0
M  V30 18 C 0.866 0.0 0.0 0 CFG=1
M  V30 19 C 6.2925 -5.2602 0.0 0
M  V30 20 N 0.866 1.0 0.0 0
M  V30 21 C 0.0 -0.5 0.0 0
M  V30 22 C -0.866 0.0 0.0 0
M  V30 23 C 0.0 -1.4999 0.0 0
M  V30 24 C -1.732 -0.4999 0.0 0
M  V30 25 C -0.866 -1.9999 0.0 0
M  V30 26 C -1.732 -1.4999 0.0 0
M  V30 27 O -2.598 -1.9999 0.0 0
M  V30 END ATOM
M  V30 BEGIN BOND
M  V30 1 1 2 1 CFG=1
M  V30 2 1 1 3
M  V30 3 1 2 4
M  V30 4 1 5 2
M  V30 5 1 3 6
M  V30 6 1 4 7
M  V30 7 1 4 8
M  V30 8 1 5 9 CFG=1
M  V30 9 1 6 10
M  V30 10 1 7 11
M  V30 11 2 8 12
M  V30 12 1 9 13
M  V30 13 2 10 14
M  V30 14 2 11 15
M  V30 15 1 11 16
M  V30 16 2 13 17
M  V30 17 1 18 13
M  V30 18 1 14 19
M  V30 19 1 18 20 CFG=3
M  V30 20 1 18 21
M  V30 21 2 21 22
M  V30 22 1 21 23
M  V30 23 1 22 24
M  V30 24 2 23 25
M  V30 25 2 24 26
M  V30 26 1 26 27
M  V30 27 1 5 8
M  V30 28 2 6 7
M  V30 29 1 25 26
M  V30 END BOND
M  V30 BEGIN COLLECTION
M  V30 MDLV30/STERAC1 ATOMS=(3 2 5 18)
M  V30 END COLLECTION
M  V30 END CTAB
M  END
>  <Molecule Name>


>  <status>
-

>  <cas>
92665-29-7

>  <name>
CEFPROZIL

>  <ID>
1052

>  <Smiles>
C/C=C/C(CS[C@H]1[C@H]2NC([C@H](c(cc3)ccc3O)N)=O)=C(C([O-])=O)N1C2=O

$$$$

Actelion Java MolfileCreator 2.0

  0  0  0  0  0  0              0 V3000
M  V30 BEGIN CTAB
M  V30 COUNTS 24 26 0 0 0
M  V30 BEGIN ATOM
M  V30 1 Cl 5.8442 -3.5872 0.0 0
M  V30 2 C 5.1371 -2.8801 0.0 0
M  V30 3 C 5.3959 -1.9142 0.0 0
M  V30 4 C 4.1712 -3.1389 0.0 0
M  V30 5 N 4.6888 -1.2071 0.0 0
M  V30 6 C 6.3618 -1.6553 0.0 0
M  V30 7 C 3.4641 -2.4318 0.0 0
M  V30 8 C 4.43 -0.2411 0.0 0
M  V30 9 C 3.7229 -1.4659 0.0 0 CFG=2
M  V30 10 O 7.0689 -2.3625 0.0 0
M  V30 11 O 6.6206 -0.6894 0.0 0 CHG=-1
M  V30 12 O 4.93 0.6248 0.0 0
M  V30 13 C 3.4641 -0.5 0.0 0 CFG=2
M  V30 14 N 2.598 0.0 0.0 0
M  V30 15 C 1.732 -0.5 0.0 0
M  V30 16 O 1.732 -1.5 0.0 0
M  V30 17 C 0.866 0.0 0.0 0 CFG=2
M  V30 18 N 0.866 1.0 0.0 0
M  V30 19 C 0.0 -0.5 0.0 0
M  V30 20 C -0.866 0.0 0.0 0
M  V30 21 C 0.0 -1.4999 0.0 0
M  V30 22 C -1.732 -0.4999 0.0 0
M  V30 23 C -0.866 -1.9999 0.0 0
M  V30 24 C -1.732 -1.4999 0.0 0
M  V30 END ATOM
M  V30 BEGIN BOND
M  V30 1 1 1 2
M  V30 2 2 2 3
M  V30 3 1 2 4
M  V30 4 1 3 5
M  V30 5 1 3 6
M  V30 6 1 4 7
M  V30 7 1 5 8
M  V30 8 1 9 5 CFG=3
M  V30 9 2 6 10
M  V30 10 1 6 11
M  V30 11 2 8 12
M  V30 12 1 13 8
M  V30 13 1 13 14 CFG=3
M  V30 14 1 14 15
M  V30 15 2 15 16
M  V30 16 1 17 15
M  V30 17 1 17 18 CFG=1
M  V30 18 1 17 19
M  V30 19 2 19 20
M  V30 20 1 19 21
M  V30 21 1 20 22
M  V30 22 2 21 23
M  V30 23 2 22 24
M  V30 24 1 7 9
M  V30 25 1 9 13
M  V30 26 1 23 24
M  V30 END BOND
M  V30 BEGIN COLLECTION
M  V30 MDLV30/STERAC1 ATOMS=(3 9 13 17)
M  V30 END COLLECTION
M  V30 END CTAB
M  END
>  <Molecule Name>


>  <status>
DISCONTINUED

>  <cas>
76470-66-1

>  <name>
LORACARBEF

>  <ID>
1053

>  <Smiles>
N[C@@H](C(N[C@@H]([C@@H](CC1)N2C(C([O-])=O)=C1Cl)C2=O)=O)c1ccccc1

$$$$

Actelion Java MolfileCreator 2.0

  0  0  0  0  0  0              0 V3000
M  V30 BEGIN CTAB
M  V30 COUNTS 52 54 0 0 0
M  V30 BEGIN ATOM
M  V30 1 O 8.6424 0.6983 0.0 0
M  V30 2 C 7.9931 -0.0621 0.0 0
M  V30 3 O 8.1667 -1.0469 0.0 0
M  V30 4 C 2.5026 0.0553 0.0 0 CFG=2
M  V30 5 C 7.4474 -1.7416 0.0 0 CFG=2
M  V30 6 C 1.732 -0.5 0.0 0 CFG=2
M  V30 7 C 2.2478 0.9106 0.0 0
M  V30 8 C 7.7564 -2.6927 0.0 0 CFG=2
M  V30 9 C 6.4771 -1.4997 0.0 0
M  V30 10 O 0.866 0.0 0.0 0
M  V30 11 C 1.6971 -1.4993 0.0 0 CFG=2
M  V30 12 O 8.5224 -3.3354 0.0 0
M  V30 13 C 7.1407 -3.4807 0.0 0 CFG=1
M  V30 14 C 8.6961 -2.3506 0.0 0
M  V30 15 C 6.2015 -0.5384 0.0 0
M  V30 16 C 0.0 -0.5 0.0 0 CFG=1
M  V30 17 C 2.5061 -2.0871 0.0 0 CFG=2
M  V30 18 C 0.7983 -1.9377 0.0 0
M  V30 19 O 7.5475 -4.3942 0.0 0
M  V30 20 C 6.1432 -3.4109 0.0 0 CFG=1
M  V30 21 O -0.866 0.0 0.0 0
M  V30 22 C 0.0 -1.4999 0.0 0
M  V30 23 O 3.4333 -1.7125 0.0 0
M  V30 24 C 2.3325 -3.0719 0.0 0 CFG=1
M  V30 25 N 5.6432 -4.2769 0.0 0
M  V30 26 C 5.6737 -2.528 0.0 0
M  V30 27 C -1.732 -0.4999 0.0 0 CFG=1
M  V30 28 C -0.866 -1.9999 0.0 0 CFG=1
M  V30 29 C 3.5725 -0.7223 0.0 0 CFG=1
M  V30 30 O 1.3543 -2.864 0.0 0
M  V30 31 C 3.0518 -3.7666 0.0 0
M  V30 32 C 1.6634 -3.8151 0.0 0
M  V30 33 C 4.6456 -4.3467 0.0 0
M  V30 34 C 6.1731 -5.125 0.0 0
M  V30 35 C -1.732 -1.4999 0.0 0 CFG=2
M  V30 36 C -2.598 0.0 0.0 0
M  V30 37 O -0.866 -2.9999 0.0 0
M  V30 38 C -1.732 -2.4999 0.0 0
M  V30 39 O 2.8539 -0.2148 0.0 0
M  V30 40 C 4.4982 -0.4175 0.0 0 CFG=1
M  V30 41 C 4.03 -3.5587 0.0 0 CFG=1
M  V30 42 O -2.598 -1.9999 0.0 0
M  V30 43 C -1.732 -3.4999 0.0 0
M  V30 44 C 2.9236 0.8836 0.0 0 CFG=2
M  V30 45 O 5.2877 -0.9633 0.0 0
M  V30 46 C 4.6388 0.6425 0.0 0 CFG=1
M  V30 47 C 4.372 -2.619 0.0 0
M  V30 48 C 3.8508 1.2582 0.0 0
M  V30 49 C 2.1356 1.4992 0.0 0
M  V30 50 N 5.566 1.0171 0.0 0
M  V30 51 C 5.7052 2.0074 0.0 0
M  V30 52 C 6.3546 0.4336 0.0 0
M  V30 END ATOM
M  V30 BEGIN BOND
M  V30 1 2 1 2
M  V30 2 1 2 3
M  V30 3 1 4 2
M  V30 4 1 5 3
M  V30 5 1 6 4
M  V30 6 1 4 7 CFG=3
M  V30 7 1 8 5
M  V30 8 1 5 9 CFG=3
M  V30 9 1 6 10 CFG=1
M  V30 10 1 11 6
M  V30 11 1 8 12 CFG=3
M  V30 12 1 13 8
M  V30 13 1 8 14
M  V30 14 1 9 15
M  V30 15 1 16 10 CFG=3
M  V30 16 1 17 11
M  V30 17 1 11 18 CFG=3
M  V30 18 1 13 19 CFG=1
M  V30 19 1 20 13
M  V30 20 1 16 21
M  V30 21 1 16 22
M  V30 22 1 17 23 CFG=3
M  V30 23 1 24 17
M  V30 24 1 20 25
M  V30 25 1 20 26 CFG=1
M  V30 26 1 27 21
M  V30 27 1 28 22
M  V30 28 1 29 23 CFG=1
M  V30 29 1 24 30 CFG=3
M  V30 30 1 24 31
M  V30 31 1 24 32
M  V30 32 1 25 33
M  V30 33 1 25 34
M  V30 34 1 35 27
M  V30 35 1 27 36 CFG=1
M  V30 36 1 28 37
M  V30 37 1 28 38 CFG=1
M  V30 38 1 29 39
M  V30 39 1 40 29
M  V30 40 1 41 31
M  V30 41 1 35 42 CFG=3
M  V30 42 1 37 43
M  V30 43 1 44 39
M  V30 44 1 40 45 CFG=3
M  V30 45 1 46 40
M  V30 46 1 41 47 CFG=3
M  V30 47 1 44 48
M  V30 48 1 44 49 CFG=1
M  V30 49 1 46 50 CFG=1
M  V30 50 1 50 51
M  V30 51 1 50 52
M  V30 52 1 28 35
M  V30 53 1 33 41
M  V30 54 1 46 48
M  V30 END BOND
M  V30 BEGIN COLLECTION
M  V30 MDLV30/STERAC1 ATOMS=(18 4 5 6 8 11 13 16 17 20 24 27 28 29 35 40 41 44 46)
M  V30 END COLLECTION
M  V30 END CTAB
M  END
>  <Molecule Name>


>  <status>
-

>  <cas>
83905-01-5

>  <name>
AZITHROMYCIN

>  <ID>
1054

>  <Smiles>
CC[C@@H]([C@@](C)([C@H]([C@H](C)N(C)C[C@@H](C)C[C@@](C)([C@H]([C@H](C)[C@H]([C@@H]1C)O[C@H](C[C@]2(C)OC)O[C@H](C)[C@H]2O)O[C@H]([C@H]2O)O[C@@H](C)C[C@H]2N(C)C)O)O)O)OC1=O

$$$$

Actelion Java MolfileCreator 2.0

  0  0  0  0  0  0              0 V3000
M  V30 BEGIN CTAB
M  V30 COUNTS 37 39 0 0 0
M  V30 BEGIN ATOM
M  V30 1 S 8.6602 -1.5 0.0 0
M  V30 2 C 7.7942 -2.0 0.0 0 CFG=2
M  V30 3 C 8.6602 -0.5 0.0 0
M  V30 4 N 6.9282 -1.4999 0.0 0
M  V30 5 C 7.2942 -2.866 0.0 0 CFG=2
M  V30 6 C 7.7942 0.0 0.0 0
M  V30 7 C 6.9282 -0.5 0.0 0
M  V30 8 C 6.4282 -2.366 0.0 0
M  V30 9 N 7.553 -3.8319 0.0 0
M  V30 10 C 7.7942 0.9999 0.0 0
M  V30 11 C 6.0621 0.0 0.0 0
M  V30 12 O 5.4622 -2.6248 0.0 0
M  V30 13 C 8.5189 -4.0907 0.0 0
M  V30 14 O 8.6602 1.4999 0.0 0
M  V30 15 O 6.0621 0.9999 0.0 0
M  V30 16 O 5.1961 -0.5 0.0 0
M  V30 17 O 9.226 -3.3836 0.0 0
M  V30 18 C 8.7777 -5.0566 0.0 0
M  V30 19 C 8.6602 2.4999 0.0 0
M  V30 20 C 4.3301 0.0 0.0 0 CFG=1
M  V30 21 N 9.7437 -5.3155 0.0 0
M  V30 22 C 8.0706 -5.7638 0.0 0
M  V30 23 O 3.4641 -0.5 0.0 0
M  V30 24 C 4.3301 1.0 0.0 0
M  V30 25 O 10.4508 -4.6084 0.0 0
M  V30 26 N 7.0829 -5.6073 0.0 0
M  V30 27 C 8.2271 -6.7514 0.0 0
M  V30 28 C 2.598 0.0 0.0 0
M  V30 29 C 11.4167 -4.8672 0.0 0
M  V30 30 C 6.629 -6.4983 0.0 0
M  V30 31 S 7.3361 -7.2054 0.0 0
M  V30 32 O 2.598 1.0 0.0 0
M  V30 33 O 1.732 -0.5 0.0 0
M  V30 34 N 5.6413 -6.6548 0.0 0
M  V30 35 C 0.866 0.0 0.0 0
M  V30 36 C 0.866 1.0 0.0 0
M  V30 37 C 0.0 -0.5 0.0 0
M  V30 END ATOM
M  V30 BEGIN BOND
M  V30 1 1 2 1 CFG=1
M  V30 2 1 1 3
M  V30 3 1 2 4
M  V30 4 1 5 2
M  V30 5 1 3 6
M  V30 6 1 4 7
M  V30 7 1 4 8
M  V30 8 1 5 9 CFG=1
M  V30 9 1 6 10
M  V30 10 1 7 11
M  V30 11 2 8 12
M  V30 12 1 9 13
M  V30 13 1 10 14
M  V30 14 2 11 15
M  V30 15 1 11 16
M  V30 16 2 13 17
M  V30 17 1 13 18
M  V30 18 1 14 19
M  V30 19 1 20 16 CFG=1
M  V30 20 2 18 21
M  V30 21 1 18 22
M  V30 22 1 20 23
M  V30 23 1 20 24
M  V30 24 1 21 25
M  V30 25 1 22 26
M  V30 26 2 22 27
M  V30 27 1 23 28
M  V30 28 1 25 29
M  V30 29 2 26 30
M  V30 30 1 27 31
M  V30 31 2 28 32
M  V30 32 1 28 33
M  V30 33 1 30 34
M  V30 34 1 33 35
M  V30 35 1 35 36
M  V30 36 1 35 37
M  V30 37 1 5 8
M  V30 38 2 6 7
M  V30 39 1 30 31
M  V30 END BOND
M  V30 BEGIN COLLECTION
M  V30 MDLV30/STERAC1 ATOMS=(3 2 5 20)
M  V30 END COLLECTION
M  V30 END CTAB
M  END
>  <Molecule Name>


>  <status>
-

>  <cas>
87239-81-4

>  <name>
CEFPODOXIME PROXETIL

>  <ID>
1055

>  <Smiles>
CC(C)OC(O[C@@H](C)OC(C1=C(COC)CS[C@@H]([C@H]2NC(/C(/c3csc(N)n3)=N\OC)=O)N1C2=O)=O)=O

$$$$
_c001
Actelion Java MolfileCreator 2.0

  0  0  0  0  0  0              0 V3000
M  V30 BEGIN CTAB
M  V30 COUNTS 58 61 0 0 0
M  V30 BEGIN ATOM
M  V30 1 O 16.8881 0.0 0.0 0
M  V30 2 C 15.589 -0.75 0.0 0
M  V30 3 O 14.3922 -0.1719 0.0 0
M  V30 4 C 15.589 -2.25 0.0 0 CFG=1
M  V30 5 C 12.8729 -0.9006 0.0 0 CFG=1
M  V30 6 C 14.3933 -2.8156 0.0 0 CFG=2
M  V30 7 C 16.8881 -3.0001 0.0 0
M  V30 8 C 11.8559 0.1403 0.0 0 CFG=1
M  V30 9 C 12.8663 -2.5777 0.0 0
M  V30 10 O 13.188 -2.1677 0.0 0
M  V30 11 C 14.29 -4.5001 0.0 0 CFG=1
M  V30 12 O 12.492 1.212 0.0 0
M  V30 13 C 10.3927 -0.75 0.0 0 CFG=2
M  V30 14 C 10.8915 1.212 0.0 0
M  V30 15 C 14.29 -3.3751 0.0 0
M  V30 16 C 12.9909 -0.4121 0.0 0 CFG=2
M  V30 17 C 12.9909 -5.2502 0.0 0 CFG=1
M  V30 18 C 15.589 -5.2502 0.0 0
M  V30 19 O 9.0936 0.0 0.0 0
M  V30 20 C 10.3927 -2.25 0.0 0 CFG=2
M  V30 21 O 14.1797 0.3391 0.0 0
M  V30 22 C 11.4369 -0.0251 0.0 0
M  V30 23 O 12.9909 -6.7502 0.0 0
M  V30 24 C 11.6918 -4.5001 0.0 0 CFG=2
M  V30 25 C 7.7945 -0.75 0.0 0 CFG=1
M  V30 26 C 9.0936 -3.0001 0.0 0 CFG=1
M  V30 27 C 11.6918 -3.0001 0.0 0
M  V30 28 C 14.29 1.5 0.0 0 CFG=2
M  V30 29 C 11.6918 1.5 0.0 0 CFG=2
M  V30 30 C 11.6918 -7.5003 0.0 0 CFG=2
M  V30 31 O 12.4418 -3.2011 0.0 0
M  V30 32 C 10.3927 -5.2502 0.0 0
M  V30 33 C 10.8915 -3.2881 0.0 0
M  V30 34 N 7.7945 -2.25 0.0 0
M  V30 35 C 6.4954 0.0 0.0 0
M  V30 36 C 9.0936 -4.5001 0.0 0 CFG=2
M  V30 37 C 12.9909 2.25 0.0 0 CFG=1
M  V30 38 C 15.589 2.25 0.0 0
M  V30 39 O 10.3927 2.25 0.0 0
M  V30 40 C 11.6918 3.0001 0.0 0
M  V30 41 O 10.3927 -6.7502 0.0 0
M  V30 42 C 11.6918 -9.0003 0.0 0 CFG=2
M  V30 43 O 5.1963 -0.75 0.0 0
M  V30 44 C 7.7945 -5.2502 0.0 0
M  V30 45 O 12.9909 3.7501 0.0 0
M  V30 46 C 10.3927 3.7501 0.0 0
M  V30 47 C 9.0936 -7.5003 0.0 0 CFG=1
M  V30 48 O 12.9909 -9.7504 0.0 0
M  V30 49 C 10.3927 -9.7504 0.0 0 CFG=2
M  V30 50 C 3.8972 0.0 0.0 0
M  V30 51 C 9.0936 -9.0003 0.0 0
M  V30 52 C 7.7945 -6.7502 0.0 0
M  V30 53 N 10.3927 -11.2504 0.0 0
M  V30 54 C 2.5981 -0.75 0.0 0
M  V30 55 C 9.0936 -12.0004 0.0 0
M  V30 56 C 11.6918 -12.0004 0.0 0
M  V30 57 O 1.299 0.0 0.0 0
M  V30 58 C 0.0 -0.75 0.0 0
M  V30 END ATOM
M  V30 BEGIN BOND
M  V30 1 2 1 2
M  V30 2 1 2 3
M  V30 3 1 4 2
M  V30 4 1 5 3
M  V30 5 1 6 4
M  V30 6 1 4 7 CFG=3
M  V30 7 1 8 5
M  V30 8 1 5 9 CFG=3
M  V30 9 1 6 10 CFG=1
M  V30 10 1 11 6
M  V30 11 1 8 12
M  V30 12 1 13 8
M  V30 13 1 8 14 CFG=1
M  V30 14 1 9 15
M  V30 15 1 16 10 CFG=1
M  V30 16 1 17 11
M  V30 17 1 11 18 CFG=3
M  V30 18 1 13 19 CFG=1
M  V30 19 1 20 13
M  V30 20 1 16 21
M  V30 21 1 16 22
M  V30 22 1 17 23 CFG=1
M  V30 23 1 24 17
M  V30 24 1 25 19
M  V30 25 1 26 20
M  V30 26 1 20 27 CFG=1
M  V30 27 1 28 21
M  V30 28 1 29 22
M  V30 29 1 30 23 CFG=1
M  V30 30 1 24 31 CFG=1
M  V30 31 1 24 32
M  V30 32 1 24 33
M  V30 33 1 25 34
M  V30 34 1 25 35 CFG=1
M  V30 35 1 36 26
M  V30 36 1 37 28
M  V30 37 1 28 38 CFG=3
M  V30 38 1 29 39 CFG=1
M  V30 39 1 29 40
M  V30 40 1 30 41
M  V30 41 1 42 30
M  V30 42 1 35 43
M  V30 43 1 36 44 CFG=3
M  V30 44 1 37 45 CFG=1
M  V30 45 1 39 46
M  V30 46 1 47 41
M  V30 47 1 42 48 CFG=3
M  V30 48 1 49 42
M  V30 49 1 43 50
M  V30 50 1 47 51
M  V30 51 1 47 52 CFG=1
M  V30 52 1 49 53 CFG=1
M  V30 53 1 50 54
M  V30 54 1 53 55
M  V30 55 1 53 56
M  V30 56 1 54 57
M  V30 57 1 57 58
M  V30 58 1 26 34 CFG=3
M  V30 59 1 29 37
M  V30 60 1 32 36
M  V30 61 1 49 51
M  V30 END BOND
M  V30 BEGIN COLLECTION
M  V30 MDLV30/STERAC1 ATOMS=(20 4 5 6 8 11 13 16 17 20 24 25 26 28 29 30 36 37 42 47 49)
M  V30 END COLLECTION
M  V30 END CTAB
M  END
>  <Molecule Name>
_c001

>  <status>
DISCONTINUED

>  <cas>
62013-04-1

>  <name>
DIRITHROMYCIN

>  <ID>
1056

>  <Smiles>
CC[C@H]([C@](C)([C@@H]([C@H]1C)O[C@H](COCCOC)N[C@H]1[C@@H](C)C[C@](C)([C@@H]([C@@H](C)[C@H]([C@H]1C)O[C@@H](C[C@@]2(C)OC)O[C@@H](C)[C@@H]2O)O[C@@H]([C@@H]2O)O[C@H](C)C[C@@H]2N(C)C)O)O)OC1=O

$$$$

Actelion Java MolfileCreator 2.0

  0  0  0  0  0  0              0 V3000
M  V30 BEGIN CTAB
M  V30 COUNTS 32 35 0 0 0
M  V30 BEGIN ATOM
M  V30 1 S 5.1961 -2.4318 0.0 0
M  V30 2 C 5.4549 -1.4659 0.0 0 CFG=2
M  V30 3 C 5.9032 -3.1389 0.0 0
M  V30 4 N 6.4208 -1.2071 0.0 0
M  V30 5 C 5.1961 -0.5 0.0 0 CFG=2
M  V30 6 C 6.8691 -2.8801 0.0 0
M  V30 7 C 7.128 -1.9142 0.0 0
M  V30 8 C 6.162 -0.2411 0.0 0
M  V30 9 N 4.3301 0.0 0.0 0
M  V30 10 C 7.5762 -3.5872 0.0 0
M  V30 11 C 8.0939 -1.6553 0.0 0
M  V30 12 O 6.662 0.6248 0.0 0
M  V30 13 C 3.4641 -0.5 0.0 0
M  V30 14 N 7.3174 -4.5531 0.0 0 CHG=1
M  V30 15 O 8.801 -2.3625 0.0 0
M  V30 16 O 8.3527 -0.6894 0.0 0 CHG=-1
M  V30 17 O 3.4641 -1.5 0.0 0
M  V30 18 C 2.598 0.0 0.0 0
M  V30 19 C 6.3838 -4.9115 0.0 0
M  V30 20 C 7.9467 -5.3303 0.0 0
M  V30 21 C 8.2956 -4.3452 0.0 0
M  V30 22 N 1.732 -0.5 0.0 0
M  V30 23 C 2.598 1.0 0.0 0
M  V30 24 C 6.4362 -5.9101 0.0 0
M  V30 25 C 7.4021 -6.1689 0.0 0
M  V30 26 O 1.732 -1.5 0.0 0
M  V30 27 N 3.407 1.5877 0.0 0
M  V30 28 C 1.789 1.5877 0.0 0
M  V30 29 C 0.866 -2.0 0.0 0
M  V30 30 C 3.098 2.5388 0.0 0
M  V30 31 S 2.098 2.5388 0.0 0
M  V30 32 N 3.6858 3.3478 0.0 0
M  V30 END ATOM
M  V30 BEGIN BOND
M  V30 1 1 2 1 CFG=1
M  V30 2 1 1 3
M  V30 3 1 2 4
M  V30 4 1 5 2
M  V30 5 1 3 6
M  V30 6 1 4 7
M  V30 7 1 4 8
M  V30 8 1 5 9 CFG=1
M  V30 9 1 6 10
M  V30 10 1 7 11
M  V30 11 2 8 12
M  V30 12 1 9 13
M  V30 13 1 10 14
M  V30 14 2 11 15
M  V30 15 1 11 16
M  V30 16 2 13 17
M  V30 17 1 13 18
M  V30 18 1 14 19
M  V30 19 1 14 20
M  V30 20 1 14 21
M  V30 21 2 18 22
M  V30 22 1 18 23
M  V30 23 1 19 24
M  V30 24 1 20 25
M  V30 25 1 22 26
M  V30 26 1 23 27
M  V30 27 2 23 28
M  V30 28 1 26 29
M  V30 29 2 27 30
M  V30 30 1 28 31
M  V30 31 1 30 32
M  V30 32 1 5 8
M  V30 33 2 6 7
M  V30 34 1 24 25
M  V30 35 1 30 31
M  V30 END BOND
M  V30 BEGIN COLLECTION
M  V30 MDLV30/STERAC1 ATOMS=(2 2 5)
M  V30 END COLLECTION
M  V30 END CTAB
M  END
>  <Molecule Name>


>  <status>
-

>  <cas>
88040-23-7

>  <name>
CEFEPIME

>  <ID>
1057

>  <Smiles>
C[N+]1(CC(CS[C@H]2[C@H]3NC(/C(/c4csc(N)n4)=N\OC)=O)=C(C([O-])=O)N2C3=O)CCCC1

$$$$

Actelion Java MolfileCreator 2.0

  0  0  0  0  0  0              0 V3000
M  V30 BEGIN CTAB
M  V30 COUNTS 90 96 0 0 0
M  V30 BEGIN ATOM
M  V30 1 O 0.0 6.7796 0.0 0
M  V30 2 C 1.3047 6.0263 0.0 0
M  V30 3 O 1.3047 4.5197 0.0 0
M  V30 4 C 2.6094 6.7796 0.0 0 CFG=1
M  V30 5 C 0.0 3.7664 0.0 0 CFG=1
M  V30 6 N 3.9142 6.0263 0.0 0
M  V30 7 C 2.6094 8.2862 0.0 0
M  V30 8 C 0.0 2.2598 0.0 0 CFG=2
M  V30 9 C -1.3047 4.5197 0.0 0
M  V30 10 C 3.9142 4.5197 0.0 0
M  V30 11 C 5.2189 6.7796 0.0 0
M  V30 12 C 3.9142 9.0395 0.0 0
M  V30 13 C 1.3047 9.0395 0.0 0
M  V30 14 N 1.0673 1.5499 0.0 0
M  V30 15 C -1.68 1.5072 0.0 0
M  V30 16 O 2.6094 3.7664 0.0 0
M  V30 17 C 5.2189 3.7664 0.0 0
M  V30 18 C 0.9903 0.123 0.0 0
M  V30 19 O -2.6094 2.2598 0.0 0
M  V30 20 N -1.2255 -0.3155 0.0 0
M  V30 21 N 5.2189 2.2598 0.0 0
M  V30 22 O 2.3224 -0.9666 0.0 0
M  V30 23 C -0.0756 -0.5816 0.0 0
M  V30 24 C 0.3159 -0.9126 0.0 0 CFG=1
M  V30 25 C 3.9142 1.5065 0.0 0
M  V30 26 C 6.5237 1.5065 0.0 0
M  V30 27 C -1.5133 0.0582 0.0 0
M  V30 28 C -0.2014 -2.1885 0.0 0
M  V30 29 C 1.5023 0.0332 0.0 0
M  V30 30 C 0.3189 -2.2475 0.0 0
M  V30 31 O 2.6094 2.2598 0.0 0
M  V30 32 C 3.9142 0.0 0.0 0 CFG=1
M  V30 33 N -1.3014 1.8498 0.0 0
M  V30 34 C -2.6094 -0.7532 0.0 0
M  V30 35 N 1.1887 -3.2802 0.0 0
M  V30 36 C -1.4585 -2.8931 0.0 0
M  V30 37 O 1.6181 1.7155 0.0 0
M  V30 38 N 2.7682 -0.6352 0.0 0
M  V30 39 C -1.0185 -3.2365 0.0 0
M  V30 40 C 1.6806 -2.99 0.0 0
M  V30 41 C 5.0338 -1.0081 0.0 0
M  V30 42 O -3.9142 0.0 0.0 0
M  V30 43 C -2.6094 -2.2598 0.0 0
M  V30 44 C 1.3047 -4.5197 0.0 0
M  V30 45 O -1.3047 -4.5197 0.0 0
M  V30 46 C 2.9227 -2.2269 0.0 0
M  V30 47 C 4.421 -2.3844 0.0 0
M  V30 48 C -3.9142 -3.0131 0.0 0
M  V30 49 C 0.0 -5.273 0.0 0
M  V30 50 C 2.6094 -5.273 0.0 0
M  V30 51 C 0.0 -6.7796 0.0 0
M  V30 52 C 3.9142 -4.5197 0.0 0
M  V30 53 C 2.6094 -6.7796 0.0 0
M  V30 54 C 1.3047 -7.5329 0.0 0
M  V30 55 C -1.3047 -7.5329 0.0 0
M  V30 56 O 3.9103 -3.0504 0.0 0
M  V30 57 N 5.2189 -5.273 0.0 0
M  V30 58 C 6.5237 -4.5197 0.0 0 CFG=2
M  V30 59 C 7.8284 -5.273 0.0 0
M  V30 60 C 6.5237 -3.0131 0.0 0 CFG=2
M  V30 61 O 8.8246 -4.7357 0.0 0
M  V30 62 N 7.8284 -6.7796 0.0 0
M  V30 63 O 7.8284 -2.2598 0.0 0
M  V30 64 C 5.2532 -2.2751 0.0 0
M  V30 65 C 9.1332 -7.5329 0.0 0 CFG=1
M  V30 66 C 9.1332 -3.0131 0.0 0
M  V30 67 C 9.1332 -9.0395 0.0 0
M  V30 68 C 10.2498 -6.8596 0.0 0
M  V30 69 O 9.2874 -4.4117 0.0 0
M  V30 70 C 10.4379 -2.2598 0.0 0 CFG=1
M  V30 71 O 7.8284 -9.7928 0.0 0
M  V30 72 N 10.4379 -9.7928 0.0 0
M  V30 73 C 10.101 -5.1046 0.0 0
M  V30 74 C 11.366 -7.5329 0.0 0
M  V30 75 N 11.7426 -3.0131 0.0 0
M  V30 76 C 10.4379 -0.7532 0.0 0
M  V30 77 C 11.7426 -9.0395 0.0 0 CFG=2
M  V30 78 C 10.7511 -11.2664 0.0 0
M  V30 79 C 11.7426 -4.5197 0.0 0
M  V30 80 C 13.0474 -2.2598 0.0 0
M  V30 81 C 9.1332 0.0 0.0 0
M  V30 82 C 11.7426 0.0 0.0 0
M  V30 83 C 11.931 -7.5329 0.0 0
M  V30 84 C 12.8623 -10.0476 0.0 0
M  V30 85 C 12.2495 -11.4239 0.0 0
M  V30 86 O 10.6615 -5.228 0.0 0
M  V30 87 C 13.0474 -5.273 0.0 0
M  V30 88 O 10.7549 -6.6447 0.0 0
M  V30 89 N 13.0474 -6.7796 0.0 0
M  V30 90 C 14.3521 -7.5329 0.0 0
M  V30 END ATOM
M  V30 BEGIN BOND
M  V30 1 2 1 2
M  V30 2 1 2 3
M  V30 3 1 4 2
M  V30 4 1 5 3
M  V30 5 1 4 6
M  V30 6 1 4 7 CFG=3
M  V30 7 1 8 5
M  V30 8 1 5 9 CFG=1
M  V30 9 1 6 10
M  V30 10 1 6 11
M  V30 11 1 7 12
M  V30 12 1 7 13
M  V30 13 1 8 14 CFG=3
M  V30 14 1 8 15
M  V30 15 2 10 16
M  V30 16 1 10 17
M  V30 17 1 14 18
M  V30 18 2 15 19
M  V30 19 1 15 20
M  V30 20 1 17 21
M  V30 21 2 18 22
M  V30 22 1 18 23
M  V30 23 1 24 20
M  V30 24 1 21 25
M  V30 25 1 21 26
M  V30 26 2 23 27
M  V30 27 1 23 28
M  V30 28 1 24 29
M  V30 29 1 24 30 CFG=1
M  V30 30 2 25 31
M  V30 31 1 32 25
M  V30 32 1 27 33
M  V30 33 1 27 34
M  V30 34 2 28 35
M  V30 35 1 28 36
M  V30 36 2 29 37
M  V30 37 1 29 38
M  V30 38 1 30 39
M  V30 39 1 30 40
M  V30 40 1 32 41
M  V30 41 2 34 42
M  V30 42 1 34 43
M  V30 43 1 35 44
M  V30 44 1 36 45
M  V30 45 1 38 46
M  V30 46 1 41 47
M  V30 47 1 43 48
M  V30 48 2 44 49
M  V30 49 1 44 50
M  V30 50 1 49 51
M  V30 51 1 50 52
M  V30 52 2 50 53
M  V30 53 2 51 54
M  V30 54 1 51 55
M  V30 55 2 52 56
M  V30 56 1 52 57
M  V30 57 1 58 57 CFG=1
M  V30 58 1 58 59
M  V30 59 1 60 58
M  V30 60 2 59 61
M  V30 61 1 59 62
M  V30 62 1 60 63
M  V30 63 1 60 64 CFG=1
M  V30 64 1 65 62
M  V30 65 1 63 66
M  V30 66 1 65 67
M  V30 67 1 65 68 CFG=3
M  V30 68 2 66 69
M  V30 69 1 70 66
M  V30 70 2 67 71
M  V30 71 1 67 72
M  V30 72 1 68 73
M  V30 73 1 68 74
M  V30 74 1 70 75
M  V30 75 1 70 76 CFG=3
M  V30 76 1 77 72 CFG=3
M  V30 77 1 72 78
M  V30 78 1 75 79
M  V30 79 1 75 80
M  V30 80 1 76 81
M  V30 81 1 76 82
M  V30 82 1 77 83
M  V30 83 1 77 84
M  V30 84 1 78 85
M  V30 85 2 79 86
M  V30 86 1 79 87
M  V30 87 2 83 88
M  V30 88 1 83 89
M  V30 89 1 89 90
M  V30 90 1 32 38 CFG=3
M  V30 91 2 36 43
M  V30 92 1 45 49
M  V30 93 1 46 47
M  V30 94 1 53 54
M  V30 95 1 84 85
M  V30 96 1 87 89
M  V30 END BOND
M  V30 BEGIN COLLECTION
M  V30 MDLV30/STERAC1 ATOMS=(10 4 5 8 24 32 58 60 65 70 77)
M  V30 END COLLECTION
M  V30 END CTAB
M  END
>  <Molecule Name>


>  <status>
-

>  <cas>
50-76-0

>  <name>
DACTINOMYCIN

>  <ID>
1058

>  <Smiles>
CC(C)[C@H](C(N(CCC1)[C@@H]1C(N(C)CC(N(C)[C@@H](C(C)C)C(O[C@H](C)[C@@H]1NC(c2ccc(C)c(O3)c2N=C(C(C(N[C@@H]([C@@H](C)OC([C@H](C(C)C)N(C)C(CN(C)C([C@H](CCC2)N2C([C@@H](C(C)C)N2)=O)=O)=O)=O)C2=O)=O)=C2N)C3=C(C)C2=O)=O)=O)=O)=O)=O)NC1=O

$$$$

Actelion Java MolfileCreator 2.0

  0  0  0  0  0  0              0 V3000
M  V30 BEGIN CTAB
M  V30 COUNTS 20 22 0 0 0
M  V30 BEGIN ATOM
M  V30 1 S 4.9721 -1.2546 0.0 0
M  V30 2 O 6.3423 -1.8647 0.0 0
M  V30 3 O 6.1855 -0.3729 0.0 0
M  V30 4 C 3.9684 -0.1398 0.0 0 CFG=2
M  V30 5 C 4.222 -2.5536 0.0 0 CFG=1
M  V30 6 C 2.598 -0.75 0.0 0 CFG=1
M  V30 7 C 4.2802 1.3273 0.0 0
M  V30 8 C 5.4172 0.2483 0.0 0
M  V30 9 N 2.7548 -2.2417 0.0 0
M  V30 10 C 3.9102 -4.0208 0.0 0
M  V30 11 C 1.299 0.0 0.0 0
M  V30 12 N 5.7068 1.7908 0.0 0
M  V30 13 C 2.443 -3.709 0.0 0
M  V30 14 O 1.299 1.5 0.0 0
M  V30 15 O 0.0 -0.75 0.0 0 CHG=-1
M  V30 16 N 6.9203 0.9091 0.0 0
M  V30 17 C 6.1703 3.2174 0.0 0
M  V30 18 O 1.1849 -4.5259 0.0 0
M  V30 19 N 8.1339 1.7908 0.0 0
M  V30 20 C 7.6703 3.2174 0.0 0
M  V30 END ATOM
M  V30 BEGIN BOND
M  V30 1 2 1 2
M  V30 2 2 1 3
M  V30 3 1 4 1
M  V30 4 1 5 1
M  V30 5 1 6 4
M  V30 6 1 4 7
M  V30 7 1 4 8 CFG=1
M  V30 8 1 5 9 CFG=3
M  V30 9 1 5 10
M  V30 10 1 6 11 CFG=1
M  V30 11 1 7 12
M  V30 12 1 9 13
M  V30 13 2 11 14
M  V30 14 1 11 15
M  V30 15 1 12 16
M  V30 16 1 12 17
M  V30 17 2 13 18
M  V30 18 2 16 19
M  V30 19 2 17 20
M  V30 20 1 6 9
M  V30 21 1 10 13
M  V30 22 1 19 20
M  V30 END BOND
M  V30 BEGIN COLLECTION
M  V30 MDLV30/STERAC1 ATOMS=(3 4 5 6)
M  V30 END COLLECTION
M  V30 END CTAB
M  END
>  <Molecule Name>


>  <status>
-

>  <cas>
89786-04-9

>  <name>
TAZOBACTAM

>  <ID>
1059

>  <Smiles>
C[C@](Cn1nncc1)([C@H](C([O-])=O)N([C@H]1C2)C2=O)S1(=O)=O

$$$$

Actelion Java MolfileCreator 2.0

  0  0  0  0  0  0              0 V3000
M  V30 BEGIN CTAB
M  V30 COUNTS 27 29 0 0 0
M  V30 BEGIN ATOM
M  V30 1 S 11.6028 -1.4488 0.0 0
M  V30 2 C 10.5421 -0.3882 0.0 0 CFG=2
M  V30 3 C 13.0517 -1.0606 0.0 0
M  V30 4 N 10.9303 1.0606 0.0 0
M  V30 5 C 9.0932 0.0 0.0 0 CFG=2
M  V30 6 C 13.4399 0.3882 0.0 0
M  V30 7 C 12.3792 1.4488 0.0 0
M  V30 8 C 9.4814 1.4488 0.0 0
M  V30 9 N 7.7942 -0.75 0.0 0
M  V30 10 C 12.7675 2.8977 0.0 0
M  V30 11 O 8.7314 2.7479 0.0 0
M  V30 12 C 6.4951 0.0 0.0 0
M  V30 13 O 14.2163 3.286 0.0 0
M  V30 14 O 11.7068 3.9584 0.0 0 CHG=-1
M  V30 15 O 6.4951 1.5 0.0 0
M  V30 16 C 5.1961 -0.75 0.0 0
M  V30 17 C 5.1961 -2.25 0.0 0
M  V30 18 C 3.8971 0.0 0.0 0
M  V30 19 N 3.9826 -3.1316 0.0 0
M  V30 20 C 6.4096 -3.1316 0.0 0
M  V30 21 C 3.8971 1.4999 0.0 0
M  V30 22 C 4.4461 -4.5582 0.0 0
M  V30 23 S 5.9461 -4.5582 0.0 0
M  V30 24 C 2.598 2.2499 0.0 0
M  V30 25 N 3.5644 -5.7717 0.0 0
M  V30 26 O 1.299 1.4999 0.0 0
M  V30 27 O 2.598 3.75 0.0 0 CHG=-1
M  V30 END ATOM
M  V30 BEGIN BOND
M  V30 1 1 2 1 CFG=1
M  V30 2 1 1 3
M  V30 3 1 2 4
M  V30 4 1 5 2
M  V30 5 1 3 6
M  V30 6 1 4 7
M  V30 7 1 4 8
M  V30 8 1 5 9 CFG=1
M  V30 9 1 7 10
M  V30 10 2 8 11
M  V30 11 1 9 12
M  V30 12 2 10 13
M  V30 13 1 10 14
M  V30 14 2 12 15
M  V30 15 1 12 16
M  V30 16 1 16 17
M  V30 17 2 16 18
M  V30 18 1 17 19
M  V30 19 2 17 20
M  V30 20 1 18 21
M  V30 21 2 19 22
M  V30 22 1 20 23
M  V30 23 1 21 24
M  V30 24 1 22 25
M  V30 25 2 24 26
M  V30 26 1 24 27
M  V30 27 1 5 8
M  V30 28 2 6 7
M  V30 29 1 22 23
M  V30 END BOND
M  V30 BEGIN COLLECTION
M  V30 MDLV30/STERAC1 ATOMS=(2 2 5)
M  V30 END COLLECTION
M  V30 END CTAB
M  END
>  <Molecule Name>


>  <status>
DISCONTINUED

>  <cas>
97519-39-6

>  <name>
CEFTIBUTEN

>  <ID>
1060

>  <Smiles>
Nc1nc(/C(/C(N[C@H]([C@@H]2SCC=C(C([O-])=O)N22)C2=O)=O)=C/CC([O-])=O)cs1

$$$$
_c001
Actelion Java MolfileCreator 2.0

  0  0  0  0  0  0              0 V3000
M  V30 BEGIN CTAB
M  V30 COUNTS 61 66 0 0 0
M  V30 BEGIN ATOM
M  V30 1 O 4.0119 5.2343 0.0 0
M  V30 2 C 3.9834 4.2347 0.0 0
M  V30 3 N 4.9707 4.0759 0.0 0
M  V30 4 C 2.9886 4.1325 0.0 0
M  V30 5 C 5.9128 3.0684 0.0 0
M  V30 6 C 2.0542 3.7763 0.0 0
M  V30 7 C 2.7574 5.1054 0.0 0
M  V30 8 C 6.9128 3.0684 0.0 0
M  V30 9 C 5.4128 2.2024 0.0 0
M  V30 10 C 1.2438 3.1905 0.0 0
M  V30 11 O 7.4128 3.9344 0.0 0
M  V30 12 C 7.4128 2.2024 0.0 0
M  V30 13 N 4.4346 1.9945 0.0 0
M  V30 14 C 5.9128 1.3364 0.0 0
M  V30 15 C 0.8349 2.2779 0.0 0
M  V30 16 C 8.6777 1.8155 0.0 0
M  V30 17 C 6.9128 1.3364 0.0 0
M  V30 18 C 4.3301 0.9999 0.0 0
M  V30 19 N 5.2436 0.5932 0.0 0
M  V30 20 C 0.2037 1.5022 0.0 0 CFG=2
M  V30 21 O 9.3637 2.543 0.0 0
M  V30 22 C 9.0259 0.878 0.0 0
M  V30 23 C 7.4023 0.2749 0.0 0
M  V30 24 C 3.4641 1.4999 0.0 0
M  V30 25 C 4.3301 0.0 0.0 0
M  V30 26 C 0.045 0.5149 0.0 0 CFG=1
M  V30 27 C -0.7087 1.9111 0.0 0
M  V30 28 C 8.3882 0.1078 0.0 0
M  V30 29 C 10.0118 0.7109 0.0 0
M  V30 30 C 6.9386 -0.6111 0.0 0
M  V30 31 C 2.598 0.9999 0.0 0
M  V30 32 C 3.4641 -0.4999 0.0 0
M  V30 33 O -0.9545 0.5434 0.0 0
M  V30 34 C 0.2168 -0.6392 0.0 0 CFG=1
M  V30 35 O 8.5339 -0.8815 0.0 0
M  V30 36 O 5.9493 -0.7568 0.0 0
M  V30 37 C 7.6381 -1.3258 0.0 0 CFG=1
M  V30 38 N 2.598 0.0 0.0 0
M  V30 39 C 0.5033 -1.4142 0.0 0 CFG=2
M  V30 40 C -0.8257 -0.7109 0.0 0
M  V30 41 O 6.5044 -2.3791 0.0 0
M  V30 42 C 8.2064 -2.1485 0.0 0
M  V30 43 C 1.732 -0.5 0.0 0
M  V30 44 O -0.3765 -1.8893 0.0 0
M  V30 45 C 1.0892 -2.2246 0.0 0 CFG=1
M  V30 46 C 5.5699 -2.7353 0.0 0
M  V30 47 C 0.866 0.0 0.0 0
M  V30 48 C 1.8649 -2.8557 0.0 0 CFG=1
M  V30 49 C 0.4135 -2.8835 0.0 0
M  V30 50 C 4.7595 -3.3212 0.0 0
M  V30 51 C 0.866 1.0 0.0 0
M  V30 52 C -0.1347 -0.4371 0.0 0
M  V30 53 O 1.3404 -3.7071 0.0 0
M  V30 54 C 2.7775 -3.2646 0.0 0 CFG=2
M  V30 55 C 3.7648 -3.4234 0.0 0 CFG=2
M  V30 56 C 0.3408 -3.6786 0.0 0
M  V30 57 C 2.4912 -4.2228 0.0 0
M  V30 58 O 3.7362 -4.423 0.0 0
M  V30 59 O -0.1342 -2.7987 0.0 0
M  V30 60 C -0.1836 -4.53 0.0 0
M  V30 61 C 4.5876 -4.9475 0.0 0
M  V30 END ATOM
M  V30 BEGIN BOND
M  V30 1 2 1 2
M  V30 2 1 2 3
M  V30 3 1 2 4
M  V30 4 1 3 5
M  V30 5 2 4 6
M  V30 6 1 4 7
M  V30 7 1 5 8
M  V30 8 2 5 9
M  V30 9 1 6 10
M  V30 10 2 8 11
M  V30 11 1 8 12
M  V30 12 1 9 13
M  V30 13 1 9 14
M  V30 14 2 10 15
M  V30 15 2 12 16
M  V30 16 1 12 17
M  V30 17 1 13 18
M  V30 18 2 14 19
M  V30 19 1 20 15
M  V30 20 1 16 21
M  V30 21 1 16 22
M  V30 22 2 17 23
M  V30 23 1 18 24
M  V30 24 1 18 25
M  V30 25 1 26 20
M  V30 26 1 20 27 CFG=3
M  V30 27 2 22 28
M  V30 28 1 22 29
M  V30 29 1 23 30
M  V30 30 1 24 31
M  V30 31 1 25 32
M  V30 32 1 26 33 CFG=3
M  V30 33 1 34 26
M  V30 34 1 28 35
M  V30 35 2 30 36
M  V30 36 1 37 30
M  V30 37 1 31 38
M  V30 38 1 39 34
M  V30 39 1 34 40 CFG=1
M  V30 40 1 37 41
M  V30 41 1 37 42 CFG=3
M  V30 42 1 38 43
M  V30 43 1 39 44 CFG=1
M  V30 44 1 45 39
M  V30 45 1 41 46
M  V30 46 1 43 47
M  V30 47 1 48 45
M  V30 48 1 45 49 CFG=1
M  V30 49 2 46 50
M  V30 50 1 47 51
M  V30 51 1 47 52
M  V30 52 1 48 53 CFG=3
M  V30 53 1 54 48
M  V30 54 1 55 50
M  V30 55 1 53 56
M  V30 56 1 54 57 CFG=3
M  V30 57 1 55 58 CFG=1
M  V30 58 2 56 59
M  V30 59 1 56 60
M  V30 60 1 58 61
M  V30 61 1 14 17
M  V30 62 1 18 19
M  V30 63 1 23 28
M  V30 64 1 32 38
M  V30 65 1 35 37
M  V30 66 1 54 55
M  V30 END BOND
M  V30 BEGIN COLLECTION
M  V30 MDLV30/STERAC1 ATOMS=(9 20 26 34 37 39 45 48 54 55)
M  V30 END COLLECTION
M  V30 END CTAB
M  END
>  <Molecule Name>
_c001

>  <status>
-

>  <cas>
72559-06-9

>  <name>
RIFABUTIN

>  <ID>
1061

>  <Smiles>
CC(C)CN(CC1)CCC1(NC1=C2NC(/C(/C)=C\C=C\[C@@H](C)[C@H]([C@H](C)[C@@H]([C@H](C)[C@H]([C@@H](C)[C@@H](/C=C/O[C@@](C)(C3=O)O4)OC)OC(C)=O)O)O)=O)N=C1c1c3c4c(C)c(O)c1C2=O

$$$$

Actelion Java MolfileCreator 2.0

  0  0  0  0  0  0              0 V3000
M  V30 BEGIN CTAB
M  V30 COUNTS 9 9 0 0 0
M  V30 BEGIN ATOM
M  V30 1 O 2.598 -0.75 0.0 0
M  V30 2 C 1.299 0.0 0.0 0
M  V30 3 N 1.299 1.5 0.0 0
M  V30 4 C 0.0 -0.75 0.0 0
M  V30 5 N -1.299 0.0 0.0 0
M  V30 6 C 0.0 -2.25 0.0 0
M  V30 7 C -2.598 -0.7499 0.0 0
M  V30 8 N -1.299 -2.9999 0.0 0
M  V30 9 C -2.598 -2.2499 0.0 0
M  V30 END ATOM
M  V30 BEGIN BOND
M  V30 1 2 1 2
M  V30 2 1 2 3
M  V30 3 1 2 4
M  V30 4 2 4 5
M  V30 5 1 4 6
M  V30 6 1 5 7
M  V30 7 2 6 8
M  V30 8 2 7 9
M  V30 9 1 8 9
M  V30 END BOND
M  V30 END CTAB
M  END
>  <Molecule Name>


>  <status>
-

>  <cas>
98-96-4

>  <name>
PYRAZINAMIDE

>  <ID>
1062

>  <Smiles>
NC(c1nccnc1)=O

$$$$

Actelion Java MolfileCreator 2.0

  0  0  0  0  0  0              0 V3000
M  V30 BEGIN CTAB
M  V30 COUNTS 26 28 0 0 0
M  V30 BEGIN ATOM
M  V30 1 S 5.1752 0.2318 0.0 0
M  V30 2 C 5.582 -0.6816 0.0 0
M  V30 3 C 4.1807 0.3364 0.0 0 CFG=2
M  V30 4 C 6.5601 -0.8895 0.0 0
M  V30 5 C 5.082 -1.5476 0.0 0 CFG=1
M  V30 6 C 3.6807 1.2024 0.0 0
M  V30 7 C 3.5116 -0.4067 0.0 0
M  V30 8 N 6.6646 -1.884 0.0 0
M  V30 9 C 7.3033 -0.2204 0.0 0
M  V30 10 C 5.7511 -2.2908 0.0 0 CFG=1
M  V30 11 C 4.0874 -1.6522 0.0 0
M  V30 12 N 2.7026 0.9945 0.0 0
M  V30 13 C 2.598 0.0 0.0 0 CFG=2
M  V30 14 C 7.0714 -2.7976 0.0 0
M  V30 15 O 8.2543 -0.5294 0.0 0
M  V30 16 O 7.0953 0.7577 0.0 0 CHG=-1
M  V30 17 C 6.1578 -3.2043 0.0 0 CFG=2
M  V30 18 C 1.732 -0.5 0.0 0
M  V30 19 O 8.005 -3.156 0.0 0
M  V30 20 C 5.7995 -4.1379 0.0 0 CFG=2
M  V30 21 O 1.732 -1.5 0.0 0
M  V30 22 N 0.866 0.0 0.0 0
M  V30 23 O 4.8118 -4.2943 0.0 0
M  V30 24 C 6.4288 -4.9151 0.0 0
M  V30 25 C 0.866 1.0 0.0 0
M  V30 26 C 0.0 -0.5 0.0 0
M  V30 END ATOM
M  V30 BEGIN BOND
M  V30 1 1 1 2
M  V30 2 1 3 1 CFG=1
M  V30 3 2 2 4
M  V30 4 1 5 2
M  V30 5 1 3 6
M  V30 6 1 3 7
M  V30 7 1 4 8
M  V30 8 1 4 9
M  V30 9 1 10 5
M  V30 10 1 5 11 CFG=1
M  V30 11 1 6 12
M  V30 12 1 13 7
M  V30 13 1 8 14
M  V30 14 2 9 15
M  V30 15 1 9 16
M  V30 16 1 17 10
M  V30 17 1 13 18 CFG=1
M  V30 18 2 14 19
M  V30 19 1 20 17
M  V30 20 2 18 21
M  V30 21 1 18 22
M  V30 22 1 20 23 CFG=1
M  V30 23 1 20 24
M  V30 24 1 22 25
M  V30 25 1 22 26
M  V30 26 1 10 8 CFG=1
M  V30 27 1 12 13
M  V30 28 1 17 14 CFG=3
M  V30 END BOND
M  V30 BEGIN COLLECTION
M  V30 MDLV30/STERAC1 ATOMS=(6 3 5 10 13 17 20)
M  V30 END COLLECTION
M  V30 END CTAB
M  END
>  <Molecule Name>


>  <status>
-

>  <cas>
96036-03-2

>  <name>
MEROPENEM

>  <ID>
1063

>  <Smiles>
C[C@H]([C@H]([C@@H]([C@H]1C)N2C(C([O-])=O)=C1S[C@@H](C1)CN[C@@H]1C(N(C)C)=O)C2=O)O

$$$$
_c001
Actelion Java MolfileCreator 2.0

  0  0  0  0  0  0              0 V3000
M  V30 BEGIN CTAB
M  V30 COUNTS 57 60 0 0 0
M  V30 BEGIN ATOM
M  V30 1 O 0.4315 4.5695 0.0 0
M  V30 2 C 1.1773 3.9033 0.0 0
M  V30 3 N 1.7439 3.0569 0.0 0
M  V30 4 C 10.4113 -1.3306 0.0 0
M  V30 5 C 1.2352 2.2462 0.0 0 CFG=1
M  V30 6 C 2.8758 3.2558 0.0 0
M  V30 7 O 11.2593 -0.8006 0.0 0
M  V30 8 C 10.4709 -2.2875 0.0 0 CFG=2
M  V30 9 C 1.4965 1.2549 0.0 0
M  V30 10 C 1.837 1.4727 0.0 0
M  V30 11 C 3.2311 2.1713 0.0 0
M  V30 12 O 9.7762 -3.0069 0.0 0
M  V30 13 O 11.2394 -1.6477 0.0 0
M  V30 14 C 11.4412 -2.5294 0.0 0 CFG=2
M  V30 15 O 0.8826 0.5872 0.0 0
M  V30 16 O 2.5186 0.9599 0.0 0
M  V30 17 C 2.7335 1.3837 0.0 0
M  V30 18 C 10.0519 -3.9681 0.0 0 CFG=1
M  V30 19 C 11.7168 -3.4907 0.0 0
M  V30 20 C 12.1358 -1.8101 0.0 0
M  V30 21 C 2.598 0.0 0.0 0 CFG=1
M  V30 22 C 9.55 -4.7851 0.0 0 CFG=2
M  V30 23 C 11.0222 -4.21 0.0 0 CFG=1
M  V30 24 C 1.732 -0.5 0.0 0
M  V30 25 C 3.4271 -0.5591 0.0 0 CFG=2
M  V30 26 O 10.0832 -5.6311 0.0 0
M  V30 27 C 8.5555 -4.8896 0.0 0
M  V30 28 O 11.2978 -5.1713 0.0 0
M  V30 29 C 0.866 0.0 0.0 0
M  V30 30 C 1.732 -1.5 0.0 0
M  V30 31 C 4.3781 -0.2501 0.0 0 CFG=2
M  V30 32 C 3.2736 -1.5324 0.0 0
M  V30 33 C 9.6171 -6.5158 0.0 0
M  V30 34 C 7.8609 -4.1702 0.0 0 CFG=1
M  V30 35 C 12.2681 -5.4132 0.0 0
M  V30 36 C 0.0 -0.5 0.0 0 CFG=2
M  V30 37 O 4.6538 0.711 0.0 0
M  V30 38 C 5.0209 -1.0162 0.0 0
M  V30 39 C 6.9337 -4.5449 0.0 0
M  V30 40 C 8.0688 -3.1921 0.0 0
M  V30 41 C -0.866 0.0 0.0 0
M  V30 42 C 0.0 -1.4999 0.0 0
M  V30 43 C 4.5514 -1.8991 0.0 0
M  V30 44 C 6.0676 -4.0449 0.0 0
M  V30 45 C -1.732 -0.4999 0.0 0 CFG=2
M  V30 46 C -0.866 -1.9999 0.0 0
M  V30 47 O 3.5807 -1.8983 0.0 0
M  V30 48 C 4.9582 -2.8127 0.0 0 CFG=2
M  V30 49 C 5.9285 -3.0546 0.0 0
M  V30 50 C 5.2386 -4.604 0.0 0
M  V30 51 O -2.598 0.0 0.0 0
M  V30 52 C -1.732 -1.4999 0.0 0 CFG=2
M  V30 53 C 4.3154 -3.5787 0.0 0
M  V30 54 C -3.4641 -0.4999 0.0 0
M  V30 55 O -2.598 -1.9999 0.0 0
M  V30 56 C 3.3306 -3.4051 0.0 0
M  V30 57 C 2.6878 -4.1711 0.0 0
M  V30 END ATOM
M  V30 BEGIN BOND
M  V30 1 2 1 2
M  V30 2 1 2 3
M  V30 3 1 2 4
M  V30 4 1 5 3 CFG=3
M  V30 5 1 3 6
M  V30 6 2 4 7
M  V30 7 1 8 4
M  V30 8 1 5 9
M  V30 9 1 5 10
M  V30 10 1 6 11
M  V30 11 1 8 12
M  V30 12 1 8 13 CFG=1
M  V30 13 1 14 8
M  V30 14 2 9 15
M  V30 15 1 9 16
M  V30 16 1 10 17
M  V30 17 1 18 12 CFG=3
M  V30 18 1 14 19
M  V30 19 1 14 20 CFG=1
M  V30 20 1 21 16
M  V30 21 1 22 18
M  V30 22 1 23 18
M  V30 23 1 21 24 CFG=3
M  V30 24 1 25 21
M  V30 25 1 22 26 CFG=3
M  V30 26 1 22 27
M  V30 27 1 23 28 CFG=1
M  V30 28 2 24 29
M  V30 29 1 24 30
M  V30 30 1 31 25
M  V30 31 1 25 32 CFG=3
M  V30 32 1 26 33
M  V30 33 1 34 27
M  V30 34 1 28 35
M  V30 35 1 36 29 CFG=1
M  V30 36 1 31 37 CFG=3
M  V30 37 1 31 38
M  V30 38 1 34 39
M  V30 39 1 34 40 CFG=1
M  V30 40 1 36 41
M  V30 41 1 36 42
M  V30 42 1 38 43
M  V30 43 1 39 44
M  V30 44 1 45 41
M  V30 45 1 42 46
M  V30 46 2 43 47
M  V30 47 1 48 43
M  V30 48 2 44 49
M  V30 49 1 44 50
M  V30 50 1 45 51 CFG=1
M  V30 51 1 52 45
M  V30 52 1 48 53 CFG=3
M  V30 53 1 51 54
M  V30 54 1 52 55 CFG=3
M  V30 55 1 53 56
M  V30 56 2 56 57
M  V30 57 1 11 17
M  V30 58 1 19 23
M  V30 59 1 46 52
M  V30 60 1 48 49
M  V30 END BOND
M  V30 BEGIN COLLECTION
M  V30 MDLV30/STERAC1 ATOMS=(14 5 8 14 18 21 22 23 25 31 34 36 45 48 52)
M  V30 END COLLECTION
M  V30 END CTAB
M  END
>  <Molecule Name>
_c001

>  <status>
-

>  <cas>
104987-11-3

>  <name>
TACROLIMUS

>  <ID>
1064

>  <Smiles>
C[C@@H](C[C@H]1OC)[C@](C(C(N(CCCC2)[C@H]2C(O[C@H]([C@@H](C)[C@@H](CC([C@@H](CC=C)/C=C(\C)/C[C@@H](C)C2)=O)O)/C(/C)=C/[C@@H](CC[C@@H]3O)C[C@@H]3OC)=O)=O)=O)(O)O[C@H]1[C@@H]2OC

$$$$

Actelion Java MolfileCreator 2.0

  0  0  0  0  0  0              0 V3000
M  V30 BEGIN CTAB
M  V30 COUNTS 8 8 0 0 0
M  V30 BEGIN ATOM
M  V30 1 P 0.866 0.0 0.0 0
M  V30 2 O 1.366 -0.866 0.0 0
M  V30 3 O 1.732 0.4999 0.0 0 CHG=-1
M  V30 4 O 0.366 0.866 0.0 0 CHG=-1
M  V30 5 C 0.0 -0.5 0.0 0 CFG=2
M  V30 6 O -1.0 -0.4999 0.0 0
M  V30 7 C -0.5 -1.366 0.0 0 CFG=2
M  V30 8 C -0.5 -2.366 0.0 0
M  V30 END ATOM
M  V30 BEGIN BOND
M  V30 1 2 1 2
M  V30 2 1 1 3
M  V30 3 1 1 4
M  V30 4 1 5 1 CFG=1
M  V30 5 1 5 6
M  V30 6 1 7 5
M  V30 7 1 7 8 CFG=1
M  V30 8 1 6 7
M  V30 END BOND
M  V30 BEGIN COLLECTION
M  V30 MDLV30/STERAC1 ATOMS=(2 5 7)
M  V30 END COLLECTION
M  V30 END CTAB
M  END
>  <Molecule Name>


>  <status>
-

>  <cas>
23155-02-4

>  <name>
FOSFOMYCIN

>  <ID>
1065

>  <Smiles>
C[C@H]1O[C@H]1P([O-])([O-])=O

$$$$

Actelion Java MolfileCreator 2.0

  0  0  0  0  0  0              0 V3000
M  V30 BEGIN CTAB
M  V30 COUNTS 31 33 0 0 0
M  V30 BEGIN ATOM
M  V30 1 O 9.065 -3.7212 0.0 0
M  V30 2 C 9.7341 -2.9781 0.0 0
M  V30 3 O 10.7287 -3.0826 0.0 0
M  V30 4 C 9.5262 -1.9999 0.0 0
M  V30 5 C 11.1354 -2.1691 0.0 0
M  V30 6 C 8.6602 -1.5 0.0 0
M  V30 7 C 10.3923 -1.4999 0.0 0
M  V30 8 O 7.7942 -1.9999 0.0 0
M  V30 9 C 8.6602 -0.5 0.0 0
M  V30 10 C 10.3923 -0.5 0.0 0
M  V30 11 C 9.5262 0.0 0.0 0
M  V30 12 C 7.7942 0.0 0.0 0
M  V30 13 C 11.2583 0.0 0.0 0
M  V30 14 O 9.5262 1.0 0.0 0
M  V30 15 C 6.9282 -0.5 0.0 0
M  V30 16 C 8.6602 1.5 0.0 0
M  V30 17 C 6.0621 0.0 0.0 0
M  V30 18 C 5.1961 -0.5 0.0 0
M  V30 19 C 6.0621 0.9999 0.0 0
M  V30 20 C 4.3301 0.0 0.0 0
M  V30 21 C 3.4641 -0.5 0.0 0
M  V30 22 O 3.4641 -1.5 0.0 0
M  V30 23 O 2.598 0.0 0.0 0
M  V30 24 C 1.732 -0.5 0.0 0
M  V30 25 C 0.866 0.0 0.0 0
M  V30 26 N 0.0 -0.5 0.0 0
M  V30 27 C -0.866 0.0 0.0 0
M  V30 28 C 0.0 -1.4999 0.0 0
M  V30 29 C -1.732 -0.4999 0.0 0
M  V30 30 C -0.866 -1.9999 0.0 0
M  V30 31 O -1.732 -1.4999 0.0 0
M  V30 END ATOM
M  V30 BEGIN BOND
M  V30 1 2 1 2
M  V30 2 1 2 3
M  V30 3 1 2 4
M  V30 4 1 3 5
M  V30 5 2 4 6
M  V30 6 1 4 7
M  V30 7 1 6 8
M  V30 8 1 6 9
M  V30 9 2 7 10
M  V30 10 2 9 11
M  V30 11 1 9 12
M  V30 12 1 10 13
M  V30 13 1 11 14
M  V30 14 1 12 15
M  V30 15 1 14 16
M  V30 16 2 15 17
M  V30 17 1 17 18
M  V30 18 1 17 19
M  V30 19 1 18 20
M  V30 20 1 20 21
M  V30 21 2 21 22
M  V30 22 1 21 23
M  V30 23 1 23 24
M  V30 24 1 24 25
M  V30 25 1 25 26
M  V30 26 1 26 27
M  V30 27 1 26 28
M  V30 28 1 27 29
M  V30 29 1 28 30
M  V30 30 1 29 31
M  V30 31 1 5 7
M  V30 32 1 10 11
M  V30 33 1 30 31
M  V30 END BOND
M  V30 END CTAB
M  END
>  <Molecule Name>


>  <status>
-

>  <cas>
128794-94-5

>  <name>
MYCOPHENOLATE MOFETIL

>  <ID>
1066

>  <Smiles>
C/C(/CCC(OCCN1CCOCC1)=O)=C\Cc(c(O)c(c(CO1)c2C)C1=O)c2OC

$$$$

Actelion Java MolfileCreator 2.0

  0  0  0  0  0  0              0 V3000
M  V30 BEGIN CTAB
M  V30 COUNTS 26 28 0 0 0
M  V30 BEGIN ATOM
M  V30 1 S 9.0047 -1.4488 0.0 0
M  V30 2 C 7.944 -0.3882 0.0 0 CFG=2
M  V30 3 C 10.4536 -1.0606 0.0 0
M  V30 4 N 8.3323 1.0606 0.0 0
M  V30 5 C 6.4951 0.0 0.0 0 CFG=2
M  V30 6 C 10.8418 0.3882 0.0 0
M  V30 7 C 9.7811 1.4488 0.0 0
M  V30 8 C 6.8834 1.4488 0.0 0
M  V30 9 N 5.1961 -0.75 0.0 0
M  V30 10 C 12.2907 0.7764 0.0 0
M  V30 11 C 10.1694 2.8977 0.0 0
M  V30 12 O 6.1334 2.7479 0.0 0
M  V30 13 C 3.8971 0.0 0.0 0
M  V30 14 C 12.6789 2.2253 0.0 0
M  V30 15 O 11.6183 3.286 0.0 0
M  V30 16 O 9.1087 3.9584 0.0 0 CHG=-1
M  V30 17 O 3.8971 1.5 0.0 0
M  V30 18 C 2.598 -0.75 0.0 0
M  V30 19 N 1.299 0.0 0.0 0
M  V30 20 C 2.598 -2.25 0.0 0
M  V30 21 O 1.299 1.4999 0.0 0
M  V30 22 N 1.3845 -3.1316 0.0 0
M  V30 23 C 3.8116 -3.1316 0.0 0
M  V30 24 C 1.848 -4.5582 0.0 0
M  V30 25 S 3.348 -4.5582 0.0 0
M  V30 26 N 0.9663 -5.7717 0.0 0
M  V30 END ATOM
M  V30 BEGIN BOND
M  V30 1 1 2 1 CFG=1
M  V30 2 1 1 3
M  V30 3 1 2 4
M  V30 4 1 5 2
M  V30 5 1 3 6
M  V30 6 1 4 7
M  V30 7 1 4 8
M  V30 8 1 5 9 CFG=1
M  V30 9 1 6 10
M  V30 10 1 7 11
M  V30 11 2 8 12
M  V30 12 1 9 13
M  V30 13 2 10 14
M  V30 14 2 11 15
M  V30 15 1 11 16
M  V30 16 2 13 17
M  V30 17 1 13 18
M  V30 18 2 18 19
M  V30 19 1 18 20
M  V30 20 1 19 21
M  V30 21 1 20 22
M  V30 22 2 20 23
M  V30 23 2 22 24
M  V30 24 1 23 25
M  V30 25 1 24 26
M  V30 26 1 5 8
M  V30 27 2 6 7
M  V30 28 1 24 25
M  V30 END BOND
M  V30 BEGIN COLLECTION
M  V30 MDLV30/STERAC1 ATOMS=(2 2 5)
M  V30 END COLLECTION
M  V30 END CTAB
M  END
>  <Molecule Name>


>  <status>
-

>  <cas>
91832-40-5

>  <name>
CEFDINIR

>  <ID>
1067

>  <Smiles>
C=CC(CS[C@H]1[C@H]2NC(/C(/c3csc(N)n3)=N\O)=O)=C(C([O-])=O)N1C2=O

$$$$
omega_1
Actelion Java MolfileCreator 2.0

  0  0  0  0  0  0              0 V3000
M  V30 BEGIN CTAB
M  V30 COUNTS 62 68 0 0 0
M  V30 BEGIN ATOM
M  V30 1 O 1.3359 3.0057 0.0 0
M  V30 2 C 1.3013 4.508 0.0 0
M  V30 3 O 2.6027 5.2594 0.0 0
M  V30 4 C -0.0761 5.2209 0.0 0 CFG=2
M  V30 5 C 3.9041 4.508 0.0 0 CFG=2
M  V30 6 C -1.4489 4.6097 0.0 0
M  V30 7 C 0.0809 6.7153 0.0 0 CFG=2
M  V30 8 C 3.9041 3.0053 0.0 0
M  V30 9 C 5.2054 5.2594 0.0 0
M  V30 10 C -2.6646 5.4929 0.0 0
M  V30 11 O 1.3822 5.964 0.0 0
M  V30 12 C 1.2966 7.5986 0.0 0
M  V30 13 C -1.1347 7.5986 0.0 0 CFG=1
M  V30 14 C 5.2054 2.254 0.0 0 CFG=1
M  V30 15 C 6.5068 4.508 0.0 0 CFG=2
M  V30 16 C -2.5075 6.9874 0.0 0 CFG=2
M  V30 17 C -4.0374 4.8817 0.0 0
M  V30 18 C 1.3815 9.0342 0.0 0
M  V30 19 C 0.6912 9.0312 0.0 0
M  V30 20 O -0.6704 9.0277 0.0 0
M  V30 21 O 3.9041 1.5026 0.0 0
M  V30 22 O 6.5068 3.0053 0.0 0
M  V30 23 C 6.5068 1.5026 0.0 0
M  V30 24 C 7.8082 5.2594 0.0 0
M  V30 25 O -3.7232 7.8707 0.0 0
M  V30 26 C 2.6027 9.7674 0.0 0
M  V30 27 C 3.9041 0.0 0.0 0 CFG=1
M  V30 28 C 6.5068 0.0 0.0 0
M  V30 29 C 7.8082 6.7621 0.0 0
M  V30 30 C 3.9041 9.0161 0.0 0
M  V30 31 C 5.2054 -0.7513 0.0 0 CFG=2
M  V30 32 C 2.6027 -0.7513 0.0 0 CFG=2
M  V30 33 C 6.5068 7.5134 0.0 0
M  V30 34 C 5.2054 9.7674 0.0 0 CFG=1
M  V30 35 C 5.2054 -2.254 0.0 0
M  V30 36 C 1.3013 0.0 0.0 0
M  V30 37 C 2.6027 -2.254 0.0 0
M  V30 38 C 6.5068 9.0161 0.0 0 CFG=2
M  V30 39 C 5.2054 6.7621 0.0 0
M  V30 40 C 5.2054 11.2701 0.0 0
M  V30 41 C 0.0 -0.7513 0.0 0
M  V30 42 O 7.8082 9.7674 0.0 0
M  V30 43 C 7.8082 11.2701 0.0 0 CFG=2
M  V30 44 O 9.1095 12.0215 0.0 0
M  V30 45 C 6.5068 12.0215 0.0 0
M  V30 46 C 9.1095 13.5242 0.0 0 CFG=2
M  V30 47 C 6.5068 13.5242 0.0 0 CFG=1
M  V30 48 C 7.8082 14.2755 0.0 0 CFG=1
M  V30 49 C 10.4109 14.2755 0.0 0
M  V30 50 O 5.2054 14.2755 0.0 0
M  V30 51 O 7.8082 15.7782 0.0 0
M  V30 52 C 3.9041 13.5242 0.0 0
M  V30 53 C 6.5068 16.5295 0.0 0 CFG=2
M  V30 54 O 6.5068 18.0322 0.0 0
M  V30 55 C 5.2054 15.7782 0.0 0
M  V30 56 C 5.2054 18.7836 0.0 0 CFG=2
M  V30 57 C 3.9041 16.5295 0.0 0 CFG=1
M  V30 58 C 3.9041 18.0322 0.0 0 CFG=1
M  V30 59 C 5.2054 20.2863 0.0 0
M  V30 60 O 2.6027 15.7782 0.0 0
M  V30 61 O 2.6027 18.7836 0.0 0
M  V30 62 C 2.6027 14.2755 0.0 0
M  V30 END ATOM
M  V30 BEGIN BOND
M  V30 1 2 1 2
M  V30 2 1 2 3
M  V30 3 1 4 2
M  V30 4 1 5 3 CFG=1
M  V30 5 1 4 6 CFG=3
M  V30 6 1 7 4
M  V30 7 1 5 8
M  V30 8 1 5 9
M  V30 9 2 6 10
M  V30 10 1 7 11 CFG=3
M  V30 11 1 7 12
M  V30 12 1 13 7
M  V30 13 1 14 8
M  V30 14 1 15 9
M  V30 15 1 16 10
M  V30 16 1 10 17
M  V30 17 2 12 18
M  V30 18 1 12 19
M  V30 19 1 13 20 CFG=1
M  V30 20 1 14 21 CFG=3
M  V30 21 1 14 22
M  V30 22 1 14 23
M  V30 23 1 15 24
M  V30 24 1 16 25 CFG=1
M  V30 25 1 18 26
M  V30 26 1 27 21 CFG=1
M  V30 27 1 23 28
M  V30 28 1 24 29
M  V30 29 2 26 30
M  V30 30 1 31 27
M  V30 31 1 32 27
M  V30 32 2 29 33
M  V30 33 1 34 30
M  V30 34 1 31 35 CFG=3
M  V30 35 1 32 36
M  V30 36 1 32 37 CFG=1
M  V30 37 1 38 33
M  V30 38 1 33 39
M  V30 39 1 34 40 CFG=3
M  V30 40 1 36 41
M  V30 41 1 38 42 CFG=3
M  V30 42 1 43 42 CFG=1
M  V30 43 1 43 44
M  V30 44 1 43 45
M  V30 45 1 46 44
M  V30 46 1 47 45
M  V30 47 1 48 46
M  V30 48 1 46 49 CFG=3
M  V30 49 1 47 50 CFG=3
M  V30 50 1 48 51 CFG=1
M  V30 51 1 50 52
M  V30 52 1 53 51 CFG=1
M  V30 53 1 53 54
M  V30 54 1 53 55
M  V30 55 1 56 54
M  V30 56 1 57 55
M  V30 57 1 58 56
M  V30 58 1 56 59 CFG=3
M  V30 59 1 57 60 CFG=3
M  V30 60 1 58 61 CFG=1
M  V30 61 1 60 62
M  V30 62 1 13 16
M  V30 63 1 15 22 CFG=1
M  V30 64 1 19 20
M  V30 65 1 28 31
M  V30 66 1 34 38
M  V30 67 1 47 48
M  V30 68 1 57 58
M  V30 END BOND
M  V30 BEGIN COLLECTION
M  V30 MDLV30/STEABS ATOMS=(20 4 5 7 13 14 15 16 27 31 32 34 38 43 46 47 48 53 56 57 58)
M  V30 END COLLECTION
M  V30 END CTAB
M  END
>  <Molecule Name>
omega_1

>  <status>
-

>  <cas>
70288-86-7

>  <name>
IVERMECTIN

>  <ID>
1068

>  <Smiles>
CC[C@H](C)[C@H]([C@@H](C)CC1)O[C@]1(C[C@H](C1)OC([C@@H]([C@@]([C@@H]2OC3)(/C3=C\C=C\[C@@H]3C)O)C=C(C)[C@H]2O)=O)O[C@@H]1C/C=C(\C)/[C@H]3O[C@@H](C[C@@H]1OC)O[C@@H](C)[C@@H]1O[C@@H](C[C@@H]1OC)O[C@@H](C)[C@@H]1O

$$$$
_c001
Actelion Java MolfileCreator 2.0

  0  0  0  0  0  0              0 V3000
M  V30 BEGIN CTAB
M  V30 COUNTS 73 80 0 0 0
M  V30 BEGIN ATOM
M  V30 1 S 1.732 -0.5 0.0 0
M  V30 2 C 2.598 0.0 0.0 0 CFG=1
M  V30 3 C 0.866 0.0 0.0 0
M  V30 4 C 3.4641 -0.4999 0.0 0 CFG=2
M  V30 5 C 2.598 0.9999 0.0 0
M  V30 6 C 0.0 -0.5 0.0 0 CFG=1
M  V30 7 C 4.294 0.1248 0.0 0
M  V30 8 C 5.1961 0.0 0.0 0
M  V30 9 N 3.4641 1.5 0.0 0 CFG=1
M  V30 10 C -0.866 0.0 0.0 0
M  V30 11 C 0.0 -1.4999 0.0 0
M  V30 12 C 4.294 0.8751 0.0 0
M  V30 13 C 5.1961 1.0 0.0 0
M  V30 14 O -0.866 1.0 0.0 0
M  V30 15 C -1.732 -0.4999 0.0 0
M  V30 16 N -0.866 -1.9999 0.0 0
M  V30 17 C -1.732 -1.4999 0.0 0 CFG=2
M  V30 18 C -0.2092 -2.7541 0.0 0
M  V30 19 C -2.7135 -1.3082 0.0 0
M  V30 20 O 0.6426 -2.2304 0.0 0
M  V30 21 C 0.167 -3.6806 0.0 0 CFG=1
M  V30 22 O -2.6859 -0.3086 0.0 0
M  V30 23 N -3.704 -1.4456 0.0 0
M  V30 24 N 0.2221 -4.679 0.0 0
M  V30 25 C 1.1428 -3.4619 0.0 0
M  V30 26 C -4.5962 -1.8971 0.0 0 CFG=2
M  V30 27 C -0.0499 -5.6413 0.0 0
M  V30 28 C 1.188 -4.7767 0.0 0
M  V30 29 C 1.8201 -4.1976 0.0 0
M  V30 30 C -5.2935 -2.6139 0.0 0
M  V30 31 C -5.1885 -1.0914 0.0 0
M  V30 32 O 0.8543 -6.0681 0.0 0
M  V30 33 C -0.6197 -6.4631 0.0 0 CFG=1
M  V30 34 C 2.7959 -3.9789 0.0 0
M  V30 35 C 1.5215 -5.152 0.0 0
M  V30 36 O -6.1153 -2.0441 0.0 0
M  V30 37 O -5.7203 -3.5183 0.0 0
M  V30 38 C -4.7868 -0.1756 0.0 0
M  V30 39 C -6.1824 -1.2014 0.0 0
M  V30 40 N -1.4255 -7.0553 0.0 0
M  V30 41 C 0.1924 -7.0464 0.0 0
M  V30 42 C 3.4731 -4.7146 0.0 0
M  V30 43 C 2.1988 -5.8877 0.0 0
M  V30 44 C -5.8303 -4.5122 0.0 0 CFG=2
M  V30 45 C -5.379 0.6301 0.0 0
M  V30 46 C -6.7746 -0.3956 0.0 0
M  V30 47 C -2.3799 -7.3538 0.0 0
M  V30 48 C -1.1112 -8.0047 0.0 0
M  V30 49 C -0.1113 -7.9991 0.0 0
M  V30 50 C 3.1746 -5.669 0.0 0
M  V30 51 C -5.6116 -5.488 0.0 0 CFG=2
M  V30 52 C -6.8288 -4.5673 0.0 0
M  V30 53 C -6.3729 0.5201 0.0 0
M  V30 54 O -2.2426 -8.3444 0.0 0
M  V30 55 C -3.3795 -7.3263 0.0 0 CFG=1
M  V30 56 N 3.8519 -6.4048 0.0 0
M  V30 57 N -6.5381 -5.8643 0.0 0
M  V30 58 C -5.088 -6.3399 0.0 0
M  V30 59 N -4.316 -6.9756 0.0 0
M  V30 60 C -3.5712 -8.3077 0.0 0
M  V30 61 C 4.8277 -6.1861 0.0 0
M  V30 62 C 3.5534 -7.3592 0.0 0
M  V30 63 C -6.6755 -6.8548 0.0 0
M  V30 64 O -5.8113 -6.9572 0.0 0
M  V30 65 C -2.8171 -8.9645 0.0 0
M  V30 66 O -5.8863 -7.469 0.0 0
M  V30 67 C -7.602 -7.2311 0.0 0
M  V30 68 N -8.3911 -6.6169 0.0 0
M  V30 69 C -7.7393 -8.2217 0.0 0
M  V30 70 C -9.3176 -6.9932 0.0 0
M  V30 71 O -6.9502 -8.8359 0.0 0
M  V30 72 C -8.6658 -8.598 0.0 0
M  V30 73 C -9.455 -7.9838 0.0 0
M  V30 END ATOM
M  V30 BEGIN BOND
M  V30 1 1 2 1 CFG=3
M  V30 2 1 1 3
M  V30 3 1 4 2
M  V30 4 1 2 5
M  V30 5 1 6 3 CFG=3
M  V30 6 1 4 7 CFG=1
M  V30 7 1 4 8
M  V30 8 1 9 5 CFG=3
M  V30 9 1 6 10
M  V30 10 1 6 11
M  V30 11 1 7 12
M  V30 12 1 8 13
M  V30 13 2 10 14
M  V30 14 1 10 15
M  V30 15 1 11 16
M  V30 16 1 17 15
M  V30 17 1 16 18
M  V30 18 1 17 19
M  V30 19 2 18 20
M  V30 20 1 21 18
M  V30 21 2 19 22
M  V30 22 1 19 23
M  V30 23 1 21 24
M  V30 24 1 21 25 CFG=3
M  V30 25 1 26 23
M  V30 26 1 24 27
M  V30 27 1 24 28
M  V30 28 1 25 29
M  V30 29 1 26 30
M  V30 30 1 26 31 CFG=3
M  V30 31 2 27 32
M  V30 32 1 33 27
M  V30 33 2 29 34
M  V30 34 1 29 35
M  V30 35 2 30 36
M  V30 36 1 30 37
M  V30 37 2 31 38
M  V30 38 1 31 39
M  V30 39 1 33 40 CFG=3
M  V30 40 1 33 41
M  V30 41 1 34 42
M  V30 42 2 35 43
M  V30 43 1 44 37
M  V30 44 1 38 45
M  V30 45 2 39 46
M  V30 46 1 40 47
M  V30 47 1 40 48
M  V30 48 1 41 49
M  V30 49 2 42 50
M  V30 50 1 51 44
M  V30 51 1 44 52 CFG=3
M  V30 52 2 45 53
M  V30 53 2 47 54
M  V30 54 1 55 47
M  V30 55 1 50 56
M  V30 56 1 51 57 CFG=1
M  V30 57 1 51 58
M  V30 58 1 55 59
M  V30 59 1 55 60 CFG=3
M  V30 60 1 56 61
M  V30 61 1 56 62
M  V30 62 1 57 63
M  V30 63 2 58 64
M  V30 64 1 60 65
M  V30 65 2 63 66
M  V30 66 1 63 67
M  V30 67 2 67 68
M  V30 68 1 67 69
M  V30 69 1 68 70
M  V30 70 1 69 71
M  V30 71 2 69 72
M  V30 72 2 70 73
M  V30 73 1 9 12
M  V30 74 1 9 13
M  V30 75 1 17 16 CFG=3
M  V30 76 1 43 50
M  V30 77 1 46 53
M  V30 78 1 48 49
M  V30 79 1 58 59
M  V30 80 1 72 73
M  V30 END BOND
M  V30 BEGIN COLLECTION
M  V30 MDLV30/STEABS ATOMS=(2 4 9)
M  V30 MDLV30/STERAC1 ATOMS=(9 2 6 17 21 26 33 44 51 55)
M  V30 END COLLECTION
M  V30 END CTAB
M  END
>  <Molecule Name>
_c001

>  <status>
-

>  <cas>
120138-50-3

>  <name>
QUINUPRISTIN

>  <ID>
1069

>  <Smiles>
CC[C@@H](C(N(CCC1)[C@@H]1C(N(C)[C@@H](Cc(cc1)ccc1N(C)C)C(N(C[C@@H](CS[C@H]1[C@H](CC2)CCN2C1)C(C1)=O)[C@@H]1C(N[C@@H](c1ccccc1)C(O[C@@H](C)[C@@H]1NC(c2ncccc2O)=O)=O)=O)=O)=O)=O)NC1=O

$$$$

Actelion Java MolfileCreator 2.0

  0  0  0  0  0  0              0 V3000
M  V30 BEGIN CTAB
M  V30 COUNTS 48 50 0 0 0
M  V30 BEGIN ATOM
M  V30 1 S 4.3301 0.0 0.0 0
M  V30 2 O 3.8073 -0.8666 0.0 0
M  V30 3 O 3.3301 0.0 0.0 0
M  V30 4 C 5.1961 -0.5 0.0 0 CFG=2
M  V30 5 C 4.3301 1.0 0.0 0
M  V30 6 C 5.3006 -1.4945 0.0 0 CFG=2
M  V30 7 C 6.1096 -0.0932 0.0 0
M  V30 8 C 3.4641 1.5 0.0 0
M  V30 9 N 6.2788 -1.7024 0.0 0
M  V30 10 C 4.3027 -1.5582 0.0 0
M  V30 11 C 6.7788 -0.8364 0.0 0
M  V30 12 N 3.4641 2.5 0.0 0
M  V30 13 C 7.1646 -2.1665 0.0 0
M  V30 14 O 4.2799 -0.6799 0.0 0
M  V30 15 O 3.3589 -1.8888 0.0 0
M  V30 16 C 4.3301 3.0 0.0 0
M  V30 17 C 2.598 3.0 0.0 0
M  V30 18 O 7.723 -1.3369 0.0 0
M  V30 19 C 8.1022 -2.96 0.0 0
M  V30 20 C 2.5393 -2.4617 0.0 0 CFG=2
M  V30 21 C 5.1961 2.4999 0.0 0
M  V30 22 C 2.598 4.0 0.0 0
M  V30 23 N 7.881 -3.9352 0.0 0
M  V30 24 C 9.0981 -2.869 0.0 0
M  V30 25 C 1.9047 -3.2345 0.0 0 CFG=2
M  V30 26 C 1.8601 -1.7278 0.0 0
M  V30 27 C 8.7401 -4.447 0.0 0
M  V30 28 O 9.4923 -3.7881 0.0 0
M  V30 29 C 1.764 -4.2246 0.0 0
M  V30 30 C 0.9893 -2.832 0.0 0
M  V30 31 C 2.1561 -0.7726 0.0 0
M  V30 32 C 0.8849 -1.949 0.0 0
M  V30 33 C 8.6688 -5.6733 0.0 0
M  V30 34 C 1.3614 -5.14 0.0 0
M  V30 35 C 8.3946 -6.6349 0.0 0
M  V30 36 C 1.4931 -6.1313 0.0 0
M  V30 37 O 9.31 -7.0375 0.0 0
M  V30 38 C 7.8712 -7.487 0.0 0
M  V30 39 O 0.529 -6.3967 0.0 0
M  V30 40 N 1.8873 -7.0503 0.0 0
M  V30 41 C 7.1372 -8.1662 0.0 0 CFG=1
M  V30 42 C 2.5149 -7.8289 0.0 0
M  V30 43 O 7.7102 -8.9858 0.0 0
M  V30 44 C 6.2473 -8.6222 0.0 0
M  V30 45 C 3.4556 -8.168 0.0 0
M  V30 46 C 5.2499 -8.5494 0.0 0
M  V30 47 C 4.2699 -8.7484 0.0 0
M  V30 48 C 5.1862 -7.5515 0.0 0
M  V30 END ATOM
M  V30 BEGIN BOND
M  V30 1 2 1 2
M  V30 2 2 1 3
M  V30 3 1 4 1 CFG=1
M  V30 4 1 1 5
M  V30 5 1 6 4
M  V30 6 1 4 7
M  V30 7 1 5 8
M  V30 8 1 6 9 CFG=3
M  V30 9 1 6 10
M  V30 10 1 7 11
M  V30 11 1 8 12
M  V30 12 1 9 13
M  V30 13 2 10 14
M  V30 14 1 10 15
M  V30 15 1 12 16
M  V30 16 1 12 17
M  V30 17 2 13 18
M  V30 18 1 13 19
M  V30 19 1 20 15
M  V30 20 1 16 21
M  V30 21 1 17 22
M  V30 22 1 19 23
M  V30 23 2 19 24
M  V30 24 1 25 20
M  V30 25 1 20 26 CFG=3
M  V30 26 2 23 27
M  V30 27 1 24 28
M  V30 28 1 25 29
M  V30 29 1 25 30 CFG=3
M  V30 30 1 26 31
M  V30 31 1 26 32
M  V30 32 1 27 33
M  V30 33 2 29 34
M  V30 34 1 33 35
M  V30 35 1 34 36
M  V30 36 2 35 37
M  V30 37 1 35 38
M  V30 38 2 36 39
M  V30 39 1 36 40
M  V30 40 1 41 38
M  V30 41 1 40 42
M  V30 42 1 41 43 CFG=1
M  V30 43 1 41 44
M  V30 44 1 42 45
M  V30 45 2 44 46
M  V30 46 2 45 47
M  V30 47 1 46 48
M  V30 48 1 9 11
M  V30 49 1 27 28
M  V30 50 1 46 47
M  V30 END BOND
M  V30 BEGIN COLLECTION
M  V30 MDLV30/STERAC1 ATOMS=(5 4 6 20 25 41)
M  V30 END COLLECTION
M  V30 END CTAB
M  END
>  <Molecule Name>


>  <status>
-

>  <cas>
112362-50-2

>  <name>
DALFOPRISTIN

>  <ID>
1070

>  <Smiles>
CCN(CC)CCS([C@@H](CC1)[C@@H](C(O[C@@H](C(C)C)[C@@H](C)/C=C/C(NC/C=C/C(/C)=C/[C@@H](CC(Cc2nc3co2)=O)O)=O)=O)N1C3=O)(=O)=O

$$$$

Actelion Java MolfileCreator 2.0

  0  0  0  0  0  0              0 V3000
M  V30 BEGIN CTAB
M  V30 COUNTS 39 43 0 0 0
M  V30 BEGIN ATOM
M  V30 1 O 2.598 -9.75 0.0 0
M  V30 2 C 1.299 -9.0 0.0 0
M  V30 3 C 1.299 -7.5 0.0 0
M  V30 4 C 0.0 -9.75 0.0 0
M  V30 5 C 2.598 -6.75 0.0 0
M  V30 6 C 0.0 -6.75 0.0 0
M  V30 7 C 0.0 -11.25 0.0 0
M  V30 8 C -1.299 -9.0 0.0 0
M  V30 9 O 3.8971 -7.5 0.0 0
M  V30 10 C 2.598 -5.2499 0.0 0
M  V30 11 C -1.299 -7.5 0.0 0
M  V30 12 C 0.0 -5.2499 0.0 0
M  V30 13 O 1.299 -12.0 0.0 0
M  V30 14 C -1.299 -11.9999 0.0 0
M  V30 15 C -2.598 -9.7499 0.0 0
M  V30 16 C 1.299 -4.5 0.0 0
M  V30 17 C 3.8971 -4.5 0.0 0 CFG=2
M  V30 18 O -2.598 -6.75 0.0 0
M  V30 19 O -1.299 -4.4999 0.0 0
M  V30 20 C 2.598 -11.25 0.0 0
M  V30 21 C -2.598 -11.25 0.0 0
M  V30 22 C 1.299 -2.9999 0.0 0
M  V30 23 O 5.1961 -5.25 0.0 0
M  V30 24 C 3.8971 -2.9999 0.0 0
M  V30 25 C 2.598 -2.25 0.0 0 CFG=2
M  V30 26 C 6.4951 -4.4999 0.0 0 CFG=1
M  V30 27 O 3.8971 -1.5 0.0 0
M  V30 28 C 2.598 -0.75 0.0 0
M  V30 29 O 7.7942 -5.2499 0.0 0
M  V30 30 C 6.4951 -2.9999 0.0 0
M  V30 31 O 3.8971 0.0 0.0 0
M  V30 32 C 1.299 0.0 0.0 0
M  V30 33 C 9.0932 -4.5 0.0 0 CFG=1
M  V30 34 C 7.7942 -2.25 0.0 0 CFG=2
M  V30 35 O 0.0 -0.75 0.0 0
M  V30 36 C 9.0932 -2.9999 0.0 0 CFG=2
M  V30 37 C 10.3923 -5.25 0.0 0
M  V30 38 N 7.7942 -0.75 0.0 0
M  V30 39 O 10.3923 -2.2499 0.0 0
M  V30 END ATOM
M  V30 BEGIN BOND
M  V30 1 2 1 2
M  V30 2 1 2 3
M  V30 3 1 2 4
M  V30 4 2 3 5
M  V30 5 1 3 6
M  V30 6 2 4 7
M  V30 7 1 4 8
M  V30 8 1 5 9
M  V30 9 1 5 10
M  V30 10 1 6 11
M  V30 11 2 6 12
M  V30 12 1 7 13
M  V30 13 1 7 14
M  V30 14 2 8 15
M  V30 15 2 10 16
M  V30 16 1 17 10
M  V30 17 2 11 18
M  V30 18 1 12 19
M  V30 19 1 13 20
M  V30 20 2 14 21
M  V30 21 1 16 22
M  V30 22 1 17 23 CFG=1
M  V30 23 1 17 24
M  V30 24 1 25 22
M  V30 25 1 26 23 CFG=3
M  V30 26 1 25 27 CFG=1
M  V30 27 1 25 28
M  V30 28 1 26 29
M  V30 29 1 26 30
M  V30 30 2 28 31
M  V30 31 1 28 32
M  V30 32 1 33 29
M  V30 33 1 34 30
M  V30 34 1 32 35
M  V30 35 1 36 33
M  V30 36 1 33 37 CFG=1
M  V30 37 1 34 38 CFG=1
M  V30 38 1 36 39 CFG=3
M  V30 39 1 8 11
M  V30 40 1 12 16
M  V30 41 1 15 21
M  V30 42 1 24 25
M  V30 43 1 34 36
M  V30 END BOND
M  V30 BEGIN COLLECTION
M  V30 MDLV30/STERAC1 ATOMS=(6 17 25 26 33 34 36)
M  V30 END COLLECTION
M  V30 END CTAB
M  END
>  <Molecule Name>


>  <status>
-

>  <cas>
56420-45-2

>  <name>
EPIRUBICIN

>  <ID>
1071

>  <Smiles>
C[C@H]([C@H]([C@@H](C1)N)O)O[C@@H]1O[C@H](C[C@](C1)(C(CO)=O)O)c(c(O)c2C(c(c3ccc4)c4OC)=O)c1c(O)c2C3=O

$$$$

Actelion Java MolfileCreator 2.0

  0  0  0  0  0  0              0 V3000
M  V30 BEGIN CTAB
M  V30 COUNTS 23 24 0 0 0
M  V30 BEGIN ATOM
M  V30 1 O 9.0543 -1.26 0.0 0
M  V30 2 C 8.7452 -0.309 0.0 0
M  V30 3 O 9.333 0.4999 0.0 0
M  V30 4 C 7.7942 0.0 0.0 0
M  V30 5 C 8.7452 1.309 0.0 0
M  V30 6 C 6.9282 -0.5 0.0 0
M  V30 7 C 7.7942 0.9999 0.0 0
M  V30 8 O 6.9282 -1.5 0.0 0
M  V30 9 C 6.0621 0.0 0.0 0
M  V30 10 C 6.9282 1.4999 0.0 0
M  V30 11 C 6.0621 1.0 0.0 0
M  V30 12 C 5.1961 -0.5 0.0 0
M  V30 13 C 6.9282 2.4999 0.0 0
M  V30 14 O 5.1961 1.5 0.0 0
M  V30 15 C 4.3301 0.0 0.0 0
M  V30 16 C 4.3301 1.0 0.0 0
M  V30 17 C 3.4641 -0.5 0.0 0
M  V30 18 C 2.598 0.0 0.0 0
M  V30 19 C 3.4641 -1.5 0.0 0
M  V30 20 C 1.732 -0.5 0.0 0
M  V30 21 C 0.866 0.0 0.0 0
M  V30 22 O 0.866 1.0 0.0 0
M  V30 23 O 0.0 -0.5 0.0 0 CHG=-1
M  V30 END ATOM
M  V30 BEGIN BOND
M  V30 1 2 1 2
M  V30 2 1 2 3
M  V30 3 1 2 4
M  V30 4 1 3 5
M  V30 5 2 4 6
M  V30 6 1 4 7
M  V30 7 1 6 8
M  V30 8 1 6 9
M  V30 9 2 7 10
M  V30 10 2 9 11
M  V30 11 1 9 12
M  V30 12 1 10 13
M  V30 13 1 11 14
M  V30 14 1 12 15
M  V30 15 1 14 16
M  V30 16 2 15 17
M  V30 17 1 17 18
M  V30 18 1 17 19
M  V30 19 1 18 20
M  V30 20 1 20 21
M  V30 21 2 21 22
M  V30 22 1 21 23
M  V30 23 1 5 7
M  V30 24 1 10 11
M  V30 END BOND
M  V30 END CTAB
M  END
>  <Molecule Name>


>  <status>
-

>  <cas>
24280-93-1

>  <name>
MYCOPHENOLIC ACID

>  <ID>
1072

>  <Smiles>
C/C(/CCC([O-])=O)=C\Cc(c(O)c(c(CO1)c2C)C1=O)c2OC

$$$$

Actelion Java MolfileCreator 2.0

  0  0  0  0  0  0              0 V3000
M  V30 BEGIN CTAB
M  V30 COUNTS 17 18 0 0 0
M  V30 BEGIN ATOM
M  V30 1 O 4.4902 -2.4544 0.0 0
M  V30 2 C 4.897 -1.5408 0.0 0
M  V30 3 N 5.8915 -1.4363 0.0 0
M  V30 4 N 4.3092 -0.7318 0.0 0
M  V30 5 C 6.2982 -0.5228 0.0 0
M  V30 6 C 4.7159 0.1816 0.0 0
M  V30 7 C 3.3147 -0.8364 0.0 0 CFG=1
M  V30 8 N 5.7105 0.2861 0.0 0
M  V30 9 N 7.2928 -0.4182 0.0 0
M  V30 10 O 2.6455 -0.0932 0.0 0
M  V30 11 C 2.8147 -1.7024 0.0 0 CFG=1
M  V30 12 C 1.732 -0.5 0.0 0 CFG=2
M  V30 13 O 3.2214 -2.6159 0.0 0
M  V30 14 C 1.8365 -1.4945 0.0 0 CFG=2
M  V30 15 C 0.866 0.0 0.0 0
M  V30 16 O 1.0934 -2.1636 0.0 0
M  V30 17 O 0.0 -0.5 0.0 0
M  V30 END ATOM
M  V30 BEGIN BOND
M  V30 1 2 1 2
M  V30 2 1 2 3
M  V30 3 1 2 4
M  V30 4 2 3 5
M  V30 5 1 4 6
M  V30 6 1 7 4 CFG=3
M  V30 7 1 5 8
M  V30 8 1 5 9
M  V30 9 1 7 10
M  V30 10 1 11 7
M  V30 11 1 12 10
M  V30 12 1 11 13 CFG=1
M  V30 13 1 14 11
M  V30 14 1 12 15 CFG=3
M  V30 15 1 14 16 CFG=1
M  V30 16 1 15 17
M  V30 17 2 6 8
M  V30 18 1 12 14
M  V30 END BOND
M  V30 BEGIN COLLECTION
M  V30 MDLV30/STERAC1 ATOMS=(4 7 11 12 14)
M  V30 END COLLECTION
M  V30 END CTAB
M  END
>  <Molecule Name>


>  <status>
-

>  <cas>
320-67-2

>  <name>
AZACITIDINE

>  <ID>
1073

>  <Smiles>
NC(N=CN1[C@H]([C@H]2O)O[C@@H](CO)[C@@H]2O)=NC1=O

$$$$

Actelion Java MolfileCreator 2.0

  0  0  0  0  0  0              0 V3000
M  V30 BEGIN CTAB
M  V30 COUNTS 40 42 0 0 0
M  V30 BEGIN ATOM
M  V30 1 O 0.1141 -4.2205 0.0 0
M  V30 2 C 1.1086 -4.1159 0.0 0
M  V30 3 C 1.5154 -3.2024 0.0 0 CFG=1
M  V30 4 O 0.5167 -3.2547 0.0 0
M  V30 5 C 2.4935 -2.9945 0.0 0 CFG=2
M  V30 6 C 1.0154 -2.3364 0.0 0 CFG=2
M  V30 7 O 3.2366 -3.6636 0.0 0
M  V30 8 C 2.598 -1.9999 0.0 0 CFG=2
M  V30 9 O 1.6845 -1.5932 0.0 0
M  V30 10 C 0.0208 -2.2318 0.0 0
M  V30 11 C 3.0287 -4.6418 0.0 0 CFG=1
M  V30 12 O 3.4641 -1.4999 0.0 0
M  V30 13 O 2.0777 -4.9508 0.0 0
M  V30 14 C 3.7719 -5.3109 0.0 0 CFG=2
M  V30 15 C 3.4641 -0.4999 0.0 0 CFG=2
M  V30 16 C 1.8698 -5.9289 0.0 0 CFG=1
M  V30 17 N 4.7229 -5.0019 0.0 0
M  V30 18 C 3.564 -6.289 0.0 0 CFG=2
M  V30 19 C 4.3301 0.0 0.0 0 CFG=1
M  V30 20 C 2.598 0.0 0.0 0 CFG=2
M  V30 21 C 2.6129 -6.598 0.0 0 CFG=2
M  V30 22 C 0.9187 -6.2379 0.0 0
M  V30 23 C 4.9308 -4.0237 0.0 0
M  V30 24 O 4.3071 -6.9582 0.0 0
M  V30 25 O 5.1961 -0.5 0.0 0
M  V30 26 C 4.3301 1.0 0.0 0 CFG=2
M  V30 27 N 1.732 -0.5 0.0 0
M  V30 28 C 2.598 1.0 0.0 0 CFG=2
M  V30 29 O 2.405 -7.5762 0.0 0
M  V30 30 O 0.7108 -7.2161 0.0 0
M  V30 31 O 5.1961 1.5 0.0 0
M  V30 32 C 3.4641 1.5 0.0 0 CFG=2
M  V30 33 C 0.866 0.0 0.0 0
M  V30 34 O 1.732 1.4999 0.0 0
M  V30 35 N 3.4641 2.5 0.0 0
M  V30 36 N 0.866 1.0 0.0 0 CHG=1
M  V30 37 N 0.0 -0.5 0.0 0
M  V30 38 C 4.3301 3.0 0.0 0
M  V30 39 N 5.1961 2.5 0.0 0 CHG=1
M  V30 40 N 4.3301 4.0 0.0 0
M  V30 END ATOM
M  V30 BEGIN BOND
M  V30 1 2 1 2
M  V30 2 1 3 2
M  V30 3 1 3 4 CFG=1
M  V30 4 1 5 3
M  V30 5 1 6 3
M  V30 6 1 5 7 CFG=1
M  V30 7 1 8 5
M  V30 8 1 6 9
M  V30 9 1 6 10 CFG=1
M  V30 10 1 11 7 CFG=3
M  V30 11 1 8 12 CFG=3
M  V30 12 1 11 13
M  V30 13 1 14 11
M  V30 14 1 15 12 CFG=1
M  V30 15 1 16 13
M  V30 16 1 14 17 CFG=3
M  V30 17 1 18 14
M  V30 18 1 19 15
M  V30 19 1 20 15
M  V30 20 1 21 16
M  V30 21 1 16 22 CFG=1
M  V30 22 1 17 23
M  V30 23 1 18 24 CFG=1
M  V30 24 1 19 25 CFG=3
M  V30 25 1 26 19
M  V30 26 1 20 27 CFG=3
M  V30 27 1 28 20
M  V30 28 1 21 29 CFG=3
M  V30 29 1 22 30
M  V30 30 1 26 31 CFG=1
M  V30 31 1 32 26
M  V30 32 1 27 33
M  V30 33 1 28 34 CFG=1
M  V30 34 1 32 35 CFG=3
M  V30 35 2 33 36
M  V30 36 1 33 37
M  V30 37 1 35 38
M  V30 38 2 38 39
M  V30 39 1 38 40
M  V30 40 1 8 9
M  V30 41 1 18 21
M  V30 42 1 28 32
M  V30 END BOND
M  V30 BEGIN COLLECTION
M  V30 MDLV30/STERAC1 ATOMS=(15 3 5 6 8 11 14 15 16 18 19 20 21 26 28 32)
M  V30 END COLLECTION
M  V30 END CTAB
M  END
>  <Molecule Name>


>  <status>
-

>  <cas>
57-92-1

>  <name>
STREPTOMYCIN

>  <ID>
1074

>  <Smiles>
C[C@H]([C@]([C@@H]1O[C@H]([C@@H]([C@H]2O)NC)O[C@H](CO)[C@H]2O)(C=O)O)O[C@@H]1O[C@@H]([C@@H]([C@H]([C@@H]([C@H]1O)NC(N)=[NH2+])O)NC(N)=[NH2+])[C@H]1O

$$$$

Actelion Java MolfileCreator 2.0

  0  0  0  0  0  0              0 V3000
M  V30 BEGIN CTAB
M  V30 COUNTS 82 86 0 0 0
M  V30 BEGIN ATOM
M  V30 1 O 9.9589 2.3916 0.0 0
M  V30 2 C 9.5522 1.4781 0.0 0
M  V30 3 N 10.4182 0.9781 0.0 0
M  V30 4 C 8.6011 1.7871 0.0 0 CFG=2
M  V30 5 C 11.1613 0.309 0.0 0 CFG=2
M  V30 6 C 10.8249 1.8916 0.0 0
M  V30 7 N 7.6066 1.8916 0.0 0
M  V30 8 C 8.809 2.7653 0.0 0
M  V30 9 C 11.7491 -0.5 0.0 0
M  V30 10 C 12.0274 0.809 0.0 0
M  V30 11 C 11.8194 1.7871 0.0 0
M  V30 12 C 6.6121 1.7871 0.0 0
M  V30 13 C 8.0659 3.4344 0.0 0
M  V30 14 O 12.6151 0.0 0.0 0
M  V30 15 N 12.1559 -1.4135 0.0 0
M  V30 16 O 6.4042 2.7653 0.0 0
M  V30 17 C 5.661 1.4781 0.0 0 CFG=1
M  V30 18 C 8.2738 4.4125 0.0 0
M  V30 19 C 7.1148 3.1254 0.0 0
M  V30 20 C 12.3638 -2.3916 0.0 0 CFG=2
M  V30 21 N 4.795 0.9781 0.0 0
M  V30 22 C 5.2543 2.3916 0.0 0
M  V30 23 C 7.5306 5.0817 0.0 0
M  V30 24 C 6.3717 3.7945 0.0 0
M  V30 25 C 12.3638 -3.3916 0.0 0
M  V30 26 C 13.3583 -2.2871 0.0 0
M  V30 27 C 4.0518 0.309 0.0 0
M  V30 28 C 4.2597 2.4962 0.0 0
M  V30 29 C 6.5796 4.7727 0.0 0
M  V30 30 O 13.3583 -3.4962 0.0 0
M  V30 31 N 12.1559 -4.3698 0.0 0
M  V30 32 C 13.9461 -3.0961 0.0 0
M  V30 33 C 13.765 -1.3736 0.0 0
M  V30 34 O 3.3087 0.9781 0.0 0
M  V30 35 C 3.4641 -0.5 0.0 0 CFG=1
M  V30 36 C 3.672 1.6872 0.0 0
M  V30 37 C 3.853 3.4097 0.0 0
M  V30 38 C 11.7491 -5.2833 0.0 0 CFG=2
M  V30 39 N 3.0573 -1.4135 0.0 0
M  V30 40 C 2.598 0.0 0.0 0
M  V30 41 C 11.1613 -6.0924 0.0 0
M  V30 42 C 12.6151 -5.7833 0.0 0
M  V30 43 C 2.8494 -2.3916 0.0 0
M  V30 44 C 1.732 -0.5 0.0 0
M  V30 45 O 11.9045 -6.7615 0.0 0
M  V30 46 N 10.4182 -6.7615 0.0 0
M  V30 47 C 13.4812 -5.2833 0.0 0
M  V30 48 O 1.8549 -2.2871 0.0 0
M  V30 49 C 2.8494 -3.3916 0.0 0 CFG=2
M  V30 50 C 0.866 0.0 0.0 0
M  V30 51 C 9.5522 -7.2615 0.0 0 CFG=2
M  V30 52 C 14.3472 -5.7833 0.0 0
M  V30 53 N 3.0573 -4.3698 0.0 0
M  V30 54 C 1.8549 -3.4962 0.0 0
M  V30 55 N 0.0 -0.5 0.0 0
M  V30 56 C 8.6011 -7.5705 0.0 0
M  V30 57 C 9.9589 -8.175 0.0 0
M  V30 58 N 15.2132 -5.2833 0.0 0
M  V30 59 C 3.4641 -5.2833 0.0 0
M  V30 60 C 1.2671 -2.6872 0.0 0
M  V30 61 C 1.4481 -4.4097 0.0 0
M  V30 62 O 8.809 -8.5486 0.0 0
M  V30 63 N 7.6066 -7.675 0.0 0
M  V30 64 C 10.9534 -8.2796 0.0 0
M  V30 65 O 2.598 -5.7833 0.0 0
M  V30 66 C 4.0518 -6.0924 0.0 0 CFG=1
M  V30 67 C 6.6121 -7.5705 0.0 0 CFG=1
M  V30 68 C 11.5412 -7.4705 0.0 0
M  V30 69 C 11.3602 -9.1931 0.0 0
M  V30 70 N 4.795 -6.7615 0.0 0
M  V30 71 C 3.1858 -6.5924 0.0 0
M  V30 72 C 5.661 -7.2615 0.0 0
M  V30 73 C 6.4042 -8.5486 0.0 0
M  V30 74 C 4.3882 -7.675 0.0 0
M  V30 75 C 3.3937 -7.5705 0.0 0
M  V30 76 O 5.2543 -8.175 0.0 0
M  V30 77 C 7.1473 -9.2178 0.0 0
M  V30 78 C 6.9394 -10.1959 0.0 0
M  V30 79 C 8.0984 -8.9088 0.0 0
M  V30 80 C 7.6825 -10.8651 0.0 0
M  V30 81 C 8.8415 -9.5779 0.0 0
M  V30 82 C 8.6336 -10.556 0.0 0
M  V30 END ATOM
M  V30 BEGIN BOND
M  V30 1 2 1 2
M  V30 2 1 2 3
M  V30 3 1 4 2
M  V30 4 1 5 3 CFG=1
M  V30 5 1 3 6
M  V30 6 1 4 7
M  V30 7 1 4 8 CFG=3
M  V30 8 1 5 9
M  V30 9 1 5 10
M  V30 10 1 6 11
M  V30 11 1 7 12
M  V30 12 1 8 13
M  V30 13 2 9 14
M  V30 14 1 9 15
M  V30 15 2 12 16
M  V30 16 1 17 12
M  V30 17 2 13 18
M  V30 18 1 13 19
M  V30 19 1 20 15
M  V30 20 1 17 21
M  V30 21 1 17 22 CFG=1
M  V30 22 1 18 23
M  V30 23 2 19 24
M  V30 24 1 20 25
M  V30 25 1 20 26 CFG=1
M  V30 26 1 21 27
M  V30 27 1 22 28
M  V30 28 2 23 29
M  V30 29 2 25 30
M  V30 30 1 25 31
M  V30 31 1 26 32
M  V30 32 1 26 33
M  V30 33 2 27 34
M  V30 34 1 35 27
M  V30 35 1 28 36
M  V30 36 1 28 37
M  V30 37 1 38 31
M  V30 38 1 35 39
M  V30 39 1 35 40 CFG=1
M  V30 40 1 38 41
M  V30 41 1 38 42 CFG=1
M  V30 42 1 39 43
M  V30 43 1 40 44
M  V30 44 2 41 45
M  V30 45 1 41 46
M  V30 46 1 42 47
M  V30 47 2 43 48
M  V30 48 1 49 43
M  V30 49 1 44 50
M  V30 50 1 51 46
M  V30 51 1 47 52
M  V30 52 1 49 53
M  V30 53 1 49 54 CFG=3
M  V30 54 1 50 55
M  V30 55 1 51 56
M  V30 56 1 51 57 CFG=1
M  V30 57 1 52 58
M  V30 58 1 53 59
M  V30 59 1 54 60
M  V30 60 1 54 61
M  V30 61 2 56 62
M  V30 62 1 56 63
M  V30 63 1 57 64
M  V30 64 2 59 65
M  V30 65 1 66 59
M  V30 66 1 67 63
M  V30 67 1 64 68
M  V30 68 1 64 69
M  V30 69 1 66 70 CFG=1
M  V30 70 1 66 71
M  V30 71 1 67 72
M  V30 72 1 67 73 CFG=3
M  V30 73 1 70 74
M  V30 74 1 71 75
M  V30 75 2 72 76
M  V30 76 1 73 77
M  V30 77 2 77 78
M  V30 78 1 77 79
M  V30 79 1 78 80
M  V30 80 2 79 81
M  V30 81 2 80 82
M  V30 82 1 10 11
M  V30 83 1 24 29
M  V30 84 1 70 72
M  V30 85 1 74 75
M  V30 86 1 81 82
M  V30 END BOND
M  V30 BEGIN COLLECTION
M  V30 MDLV30/STERAC1 ATOMS=(10 4 5 17 20 35 38 49 51 66 67)
M  V30 END COLLECTION
M  V30 END CTAB
M  END
>  <Molecule Name>


>  <status>
-

>  <cas>
1405-97-6

>  <name>
GRAMICIDIN

>  <ID>
1075

>  <Smiles>
CC(C)C[C@@H](C(N[C@H](Cc1ccccc1)C(N(CCC1)[C@@H]1C(N[C@@H](C(C)C)C(N[C@@H](CCCN)C(N[C@@H](CC(C)C)C(N[C@H](Cc1ccccc1)C(N(CCC1)[C@@H]1C(N[C@H](C(C)C)C(N[C@H]1CCCN)=O)=O)=O)=O)=O)=O)=O)=O)=O)NC1=O

$$$$

Actelion Java MolfileCreator 2.0

  0  0  0  0  0  0              0 V3000
M  V30 BEGIN CTAB
M  V30 COUNTS 42 45 0 0 0
M  V30 BEGIN ATOM
M  V30 1 O 2.598 -2.25 0.0 0
M  V30 2 C 2.598 -0.75 0.0 0 CFG=2
M  V30 3 C 3.8971 -3.0 0.0 0 CFG=1
M  V30 4 O 1.299 0.0 0.0 0
M  V30 5 C 3.8971 0.0 0.0 0 CFG=2
M  V30 6 C 5.1961 -2.25 0.0 0 CFG=2
M  V30 7 C 3.8971 -4.5 0.0 0
M  V30 8 C 0.0 -0.75 0.0 0 CFG=1
M  V30 9 N 3.8971 1.4999 0.0 0
M  V30 10 C 5.1961 -0.75 0.0 0 CFG=2
M  V30 11 O 6.4951 -3.0 0.0 0
M  V30 12 O 2.598 -5.25 0.0 0
M  V30 13 C -1.299 0.0 0.0 0 CFG=2
M  V30 14 C 0.0 -2.25 0.0 0 CFG=1
M  V30 15 O 6.4951 0.0 0.0 0
M  V30 16 O -1.299 1.5 0.0 0
M  V30 17 C -2.598 -0.7499 0.0 0 CFG=1
M  V30 18 N 1.299 -3.0 0.0 0
M  V30 19 C -1.299 -2.9999 0.0 0
M  V30 20 C -2.598 2.25 0.0 0 CFG=2
M  V30 21 O -3.8971 0.0 0.0 0
M  V30 22 C -2.598 -2.2499 0.0 0 CFG=1
M  V30 23 O -3.9683 1.6398 0.0 0
M  V30 24 C -2.7548 3.7417 0.0 0 CFG=2
M  V30 25 N -3.8971 -2.9999 0.0 0
M  V30 26 C -4.972 2.7546 0.0 0 CFG=1
M  V30 27 O -1.6401 4.7454 0.0 0
M  V30 28 C -4.222 4.0536 0.0 0 CFG=1
M  V30 29 C -6.4638 2.5978 0.0 0
M  V30 30 O -4.8321 5.4239 0.0 0
M  V30 31 O -7.3455 3.8113 0.0 0
M  V30 32 C -3.9505 6.6374 0.0 0 CFG=1
M  V30 33 O -2.4587 6.4807 0.0 0
M  V30 34 C -4.5606 8.0078 0.0 0 CFG=2
M  V30 35 C -1.577 7.6942 0.0 0 CFG=2
M  V30 36 N -6.0524 8.1646 0.0 0
M  V30 37 C -3.6789 9.2213 0.0 0 CFG=2
M  V30 38 C -2.1871 9.0645 0.0 0 CFG=2
M  V30 39 C -0.0852 7.5374 0.0 0
M  V30 40 O -4.289 10.5916 0.0 0
M  V30 41 O -1.3054 10.278 0.0 0
M  V30 42 N 0.7964 8.7509 0.0 0
M  V30 END ATOM
M  V30 BEGIN BOND
M  V30 1 1 2 1
M  V30 2 1 3 1
M  V30 3 1 2 4 CFG=3
M  V30 4 1 5 2
M  V30 5 1 6 3
M  V30 6 1 3 7 CFG=1
M  V30 7 1 8 4 CFG=3
M  V30 8 1 5 9 CFG=3
M  V30 9 1 10 5
M  V30 10 1 6 11 CFG=3
M  V30 11 1 7 12
M  V30 12 1 13 8
M  V30 13 1 14 8
M  V30 14 1 10 15 CFG=1
M  V30 15 1 13 16 CFG=1
M  V30 16 1 17 13
M  V30 17 1 14 18 CFG=1
M  V30 18 1 14 19
M  V30 19 1 20 16 CFG=3
M  V30 20 1 17 21 CFG=3
M  V30 21 1 22 17
M  V30 22 1 20 23
M  V30 23 1 24 20
M  V30 24 1 22 25 CFG=1
M  V30 25 1 26 23
M  V30 26 1 24 27 CFG=1
M  V30 27 1 28 24
M  V30 28 1 26 29 CFG=3
M  V30 29 1 28 30 CFG=1
M  V30 30 1 29 31
M  V30 31 1 32 30 CFG=3
M  V30 32 1 32 33
M  V30 33 1 34 32
M  V30 34 1 35 33
M  V30 35 1 34 36 CFG=3
M  V30 36 1 37 34
M  V30 37 1 38 35
M  V30 38 1 35 39 CFG=3
M  V30 39 1 37 40 CFG=1
M  V30 40 1 38 41 CFG=3
M  V30 41 1 39 42
M  V30 42 1 6 10
M  V30 43 1 19 22
M  V30 44 1 26 28
M  V30 45 1 37 38
M  V30 END BOND
M  V30 BEGIN COLLECTION
M  V30 MDLV30/STERAC1 ATOMS=(19 2 3 5 6 8 10 13 14 17 20 22 24 26 28 32 34 35 37 38)
M  V30 END COLLECTION
M  V30 END CTAB
M  END
>  <Molecule Name>


>  <status>
-

>  <cas>
7542-37-2

>  <name>
PAROMOMYCIN

>  <ID>
1076

>  <Smiles>
NC[C@@H]([C@H]([C@@H]([C@H]1N)O)O)O[C@@H]1O[C@H]([C@@H](CO)O[C@H]1O[C@H]([C@H]([C@@H](C[C@@H]2N)N)O)[C@@H]2O[C@H]([C@@H]([C@H]2O)N)O[C@H](CO)[C@H]2O)[C@H]1O

$$$$
_c001
Actelion Java MolfileCreator 2.0

  0  0  0  0  0  0              0 V3000
M  V30 BEGIN CTAB
M  V30 COUNTS 7 7 0 0 0
M  V30 BEGIN ATOM
M  V30 1 O 0.866 0.0 0.0 0
M  V30 2 C 0.0 -0.5 0.0 0
M  V30 3 N -0.9135 -0.0932 0.0 0
M  V30 4 C -0.1045 -1.4945 0.0 0 CFG=1
M  V30 5 O -1.5826 -0.8364 0.0 0
M  V30 6 N 0.6386 -2.1636 0.0 0
M  V30 7 C -1.0826 -1.7024 0.0 0
M  V30 END ATOM
M  V30 BEGIN BOND
M  V30 1 2 1 2
M  V30 2 1 2 3
M  V30 3 1 4 2
M  V30 4 1 3 5
M  V30 5 1 4 6 CFG=1
M  V30 6 1 4 7
M  V30 7 1 5 7
M  V30 END BOND
M  V30 BEGIN COLLECTION
M  V30 MDLV30/STERAC1 ATOMS=(1 4)
M  V30 END COLLECTION
M  V30 END CTAB
M  END
>  <Molecule Name>
_c001

>  <status>
-

>  <cas>
68-41-7

>  <name>
CYCLOSERINE

>  <ID>
1077

>  <Smiles>
NC(CON1)C1=O

$$$$

Actelion Java MolfileCreator 2.0

  0  0  0  0  0  0              0 V3000
M  V30 BEGIN CTAB
M  V30 COUNTS 32 35 0 0 0
M  V30 BEGIN ATOM
M  V30 1 O 2.598 -4.9999 0.0 0
M  V30 2 C 3.4641 -4.5 0.0 0
M  V30 3 C 4.3301 -5.0 0.0 0
M  V30 4 C 3.4641 -3.5 0.0 0
M  V30 5 C 4.3301 -6.0 0.0 0
M  V30 6 C 5.1961 -4.5 0.0 0
M  V30 7 C 2.598 -3.0 0.0 0
M  V30 8 C 4.3301 -3.0 0.0 0 CFG=2
M  V30 9 O 3.4641 -6.4999 0.0 0
M  V30 10 C 5.1961 -6.5 0.0 0
M  V30 11 C 5.1961 -3.5 0.0 0
M  V30 12 C 6.0621 -5.0 0.0 0
M  V30 13 O 1.732 -3.4999 0.0 0
M  V30 14 C 2.598 -2.0 0.0 0 CFG=1
M  V30 15 C 4.3301 -2.0 0.0 0 CFG=2
M  V30 16 C 6.0621 -6.0 0.0 0
M  V30 17 C 6.0621 -3.0 0.0 0
M  V30 18 O 1.732 -2.5 0.0 0
M  V30 19 C 1.732 -1.5 0.0 0
M  V30 20 C 3.4641 -1.5 0.0 0 CFG=2
M  V30 21 O 5.1961 -1.5 0.0 0
M  V30 22 O 0.866 -1.9999 0.0 0
M  V30 23 C 1.732 -0.5 0.0 0
M  V30 24 C 3.4641 -0.5 0.0 0 CFG=2
M  V30 25 C 2.598 0.0 0.0 0
M  V30 26 C 0.866 0.0 0.0 0
M  V30 27 N 4.3301 0.0 0.0 0
M  V30 28 O 2.598 1.0 0.0 0
M  V30 29 O 0.866 1.0 0.0 0
M  V30 30 N 0.0 -0.5 0.0 0
M  V30 31 C 5.1961 -0.5 0.0 0
M  V30 32 C 4.3301 0.9999 0.0 0
M  V30 END ATOM
M  V30 BEGIN BOND
M  V30 1 2 1 2
M  V30 2 1 2 3
M  V30 3 1 2 4
M  V30 4 2 3 5
M  V30 5 1 3 6
M  V30 6 2 4 7
M  V30 7 1 8 4 CFG=1
M  V30 8 1 5 9
M  V30 9 1 5 10
M  V30 10 1 6 11
M  V30 11 2 6 12
M  V30 12 1 7 13
M  V30 13 1 14 7
M  V30 14 1 15 8
M  V30 15 2 10 16
M  V30 16 2 11 17
M  V30 17 1 14 18 CFG=3
M  V30 18 1 14 19
M  V30 19 1 20 14
M  V30 20 1 15 21 CFG=3
M  V30 21 2 19 22
M  V30 22 1 19 23
M  V30 23 1 20 24 CFG=1
M  V30 24 2 23 25
M  V30 25 1 23 26
M  V30 26 1 24 27 CFG=3
M  V30 27 1 25 28
M  V30 28 2 26 29
M  V30 29 1 26 30
M  V30 30 1 27 31
M  V30 31 1 27 32
M  V30 32 1 8 11
M  V30 33 1 12 16
M  V30 34 1 20 15
M  V30 35 1 24 25
M  V30 END BOND
M  V30 BEGIN COLLECTION
M  V30 MDLV30/STERAC1 ATOMS=(5 8 14 15 20 24)
M  V30 END COLLECTION
M  V30 END CTAB
M  END
>  <Molecule Name>


>  <status>
DISCONTINUED

>  <cas>
914-00-1

>  <name>
METHACYCLINE

>  <ID>
1078

>  <Smiles>
CN(C)[C@H]([C@@H]([C@@H]([C@@H](C(c1cccc(O)c1C1=O)=C)C1=C1O)O)[C@@]11O)C(O)=C(C(N)=O)C1=O

$$$$

Actelion Java MolfileCreator 2.0

  0  0  0  0  0  0              0 V3000
M  V30 BEGIN CTAB
M  V30 COUNTS 79 82 0 0 0
M  V30 BEGIN ATOM
M  V30 1 O 4.3959 1.6985 0.0 0
M  V30 2 C 5.3807 1.8722 0.0 0
M  V30 3 O 5.6395 0.9063 0.0 0
M  V30 4 C 5.2935 2.8684 0.0 0
M  V30 5 C 6.0621 0.0 0.0 0 CFG=1
M  V30 6 C 5.3807 3.8646 0.0 0
M  V30 7 C 6.6357 -0.8191 0.0 0 CFG=2
M  V30 8 C 5.1961 -0.5 0.0 0 CFG=1
M  V30 9 O 4.3959 4.0382 0.0 0
M  V30 10 C 5.6395 4.8305 0.0 0
M  V30 11 C 7.3428 -1.5262 0.0 0
M  V30 12 C 5.8697 -1.4619 0.0 0
M  V30 13 C 4.3301 0.0 0.0 0
M  V30 14 C 5.1961 -1.4999 0.0 0
M  V30 15 C 6.0621 5.7368 0.0 0
M  V30 16 C 8.162 -2.0998 0.0 0
M  V30 17 C 3.4641 -0.5 0.0 0 CFG=1
M  V30 18 C 6.6357 6.556 0.0 0
M  V30 19 C 9.0683 -2.5224 0.0 0
M  V30 20 C 2.598 0.0 0.0 0 CFG=2
M  V30 21 C 3.4641 -1.5 0.0 0
M  V30 22 C 7.3428 7.2631 0.0 0
M  V30 23 C 10.0342 -2.7812 0.0 0
M  V30 24 O 2.598 1.0 0.0 0
M  V30 25 C 1.732 -0.5 0.0 0
M  V30 26 O 6.7 8.0291 0.0 0
M  V30 27 C 8.162 7.8366 0.0 0
M  V30 28 C 11.0304 -2.8684 0.0 0
M  V30 29 C 0.866 0.0 0.0 0
M  V30 30 C 9.0683 8.2593 0.0 0 CFG=2
M  V30 31 C 12.0266 -2.7812 0.0 0
M  V30 32 O 0.866 1.0 0.0 0
M  V30 33 C 0.0 -0.5 0.0 0
M  V30 34 O 8.7263 9.199 0.0 0
M  V30 35 C 10.0342 8.5181 0.0 0
M  V30 36 C 12.9925 -2.5224 0.0 0
M  V30 37 C -0.866 0.0 0.0 0
M  V30 38 C 0.0 -1.4999 0.0 0
M  V30 39 C 11.0304 8.6052 0.0 0 CFG=2
M  V30 40 C 13.8988 -2.0998 0.0 0
M  V30 41 C -1.732 -0.4999 0.0 0
M  V30 42 C -0.866 -1.9999 0.0 0
M  V30 43 O 11.0304 9.6052 0.0 0
M  V30 44 C 12.0266 8.5181 0.0 0
M  V30 45 C 14.718 -1.5262 0.0 0
M  V30 46 C -1.732 -1.4999 0.0 0
M  V30 47 C 12.9925 8.2593 0.0 0 CFG=2
M  V30 48 C 15.4251 -0.8191 0.0 0
M  V30 49 N -2.598 -1.9999 0.0 0
M  V30 50 O 13.3345 9.199 0.0 0
M  V30 51 C 13.8988 7.8366 0.0 0
M  V30 52 C 15.9987 0.0 0.0 0
M  V30 53 C 14.9516 7.2892 0.0 0 CFG=2
M  V30 54 C 16.4213 0.9063 0.0 0
M  V30 55 O 15.1252 6.3043 0.0 0
M  V30 56 O 14.8425 8.2832 0.0 0
M  V30 57 C 15.7176 7.9319 0.0 0
M  V30 58 C 16.6801 1.8722 0.0 0
M  V30 59 C 16.0649 5.9623 0.0 0 CFG=2
M  V30 60 C 16.6573 7.5899 0.0 0 CFG=1
M  V30 61 C 16.7672 2.8684 0.0 0
M  V30 62 C 16.831 6.6051 0.0 0 CFG=1
M  V30 63 C 16.4213 4.8305 0.0 0
M  V30 64 O 17.4234 8.2327 0.0 0
M  V30 65 C 16.6801 3.8646 0.0 0 CFG=1
M  V30 66 C 17.7706 6.2631 0.0 0
M  V30 67 O 17.6649 4.0382 0.0 0
M  V30 68 O 17.9443 5.2783 0.0 0
M  V30 69 O 18.5367 6.9059 0.0 0 CHG=-1
M  V30 70 C 18.3077 3.2722 0.0 0 CFG=2
M  V30 71 O 17.9657 2.3325 0.0 0
M  V30 72 C 19.2925 3.4458 0.0 0 CFG=1
M  V30 73 C 18.6085 1.5664 0.0 0 CFG=1
M  V30 74 O 19.6345 4.3855 0.0 0
M  V30 75 C 19.9353 2.6798 0.0 0 CFG=2
M  V30 76 C 19.5933 1.7401 0.0 0 CFG=2
M  V30 77 C 18.2664 0.6267 0.0 0
M  V30 78 N 20.9201 2.8534 0.0 0
M  V30 79 O 20.2361 0.974 0.0 0
M  V30 END ATOM
M  V30 BEGIN BOND
M  V30 1 2 1 2
M  V30 2 1 2 3
M  V30 3 1 2 4
M  V30 4 1 5 3 CFG=1
M  V30 5 1 4 6
M  V30 6 1 7 5
M  V30 7 1 8 5
M  V30 8 2 6 9
M  V30 9 1 6 10
M  V30 10 1 7 11
M  V30 11 1 7 12 CFG=3
M  V30 12 1 8 13
M  V30 13 1 8 14 CFG=3
M  V30 14 1 10 15
M  V30 15 2 11 16
M  V30 16 1 17 13
M  V30 17 1 15 18
M  V30 18 1 16 19
M  V30 19 1 20 17
M  V30 20 1 17 21 CFG=3
M  V30 21 1 18 22
M  V30 22 2 19 23
M  V30 23 1 20 24 CFG=1
M  V30 24 1 20 25
M  V30 25 2 22 26
M  V30 26 1 22 27
M  V30 27 1 23 28
M  V30 28 1 25 29
M  V30 29 1 30 27
M  V30 30 2 28 31
M  V30 31 2 29 32
M  V30 32 1 29 33
M  V30 33 1 30 34 CFG=3
M  V30 34 1 30 35
M  V30 35 1 31 36
M  V30 36 2 33 37
M  V30 37 1 33 38
M  V30 38 1 39 35
M  V30 39 2 36 40
M  V30 40 1 37 41
M  V30 41 2 38 42
M  V30 42 1 39 43 CFG=3
M  V30 43 1 39 44
M  V30 44 1 40 45
M  V30 45 2 41 46
M  V30 46 1 47 44
M  V30 47 2 45 48
M  V30 48 1 46 49
M  V30 49 1 47 50 CFG=3
M  V30 50 1 47 51
M  V30 51 1 48 52
M  V30 52 1 53 51
M  V30 53 2 52 54
M  V30 54 1 53 55
M  V30 55 1 53 56 CFG=1
M  V30 56 1 53 57
M  V30 57 1 54 58
M  V30 58 1 59 55 CFG=3
M  V30 59 1 60 57
M  V30 60 2 58 61
M  V30 61 1 62 59
M  V30 62 1 59 63
M  V30 63 1 60 64 CFG=3
M  V30 64 1 65 61
M  V30 65 1 62 66 CFG=1
M  V30 66 1 65 67 CFG=1
M  V30 67 2 66 68
M  V30 68 1 66 69
M  V30 69 1 70 67 CFG=1
M  V30 70 1 70 71
M  V30 71 1 72 70
M  V30 72 1 73 71
M  V30 73 1 72 74 CFG=1
M  V30 74 1 75 72
M  V30 75 1 76 73
M  V30 76 1 73 77 CFG=1
M  V30 77 1 75 78 CFG=1
M  V30 78 1 76 79 CFG=3
M  V30 79 1 42 46
M  V30 80 1 60 62
M  V30 81 1 63 65
M  V30 82 1 75 76
M  V30 END BOND
M  V30 BEGIN COLLECTION
M  V30 MDLV30/STERAC1 ATOMS=(18 5 7 8 17 20 30 39 47 53 59 60 62 65 70 72 73 75 76)
M  V30 END COLLECTION
M  V30 END CTAB
M  END
>  <Molecule Name>


>  <status>
DISCONTINUED

>  <cas>
1403-17-4

>  <name>
CANDICIDIN

>  <ID>
1079

>  <Smiles>
C[C@@H](C[C@@H](C)[C@H]([C@@H](C)/C=C\C=C/C=C\C=C/C=C\C=C/C=C\[C@@H](C[C@@H]([C@@H]([C@H](C1)O)C([O-])=O)O[C@@]1(C[C@H](C[C@H](C[C@H](CC(CCCC(C1)=O)=O)O)O)O)O)O[C@@H]([C@H]([C@H]2N)O)O[C@H](C)[C@H]2O)OC1=O)[C@@H](CC(c(cc1)ccc1N)=O)O

$$$$

Actelion Java MolfileCreator 2.0

  0  0  0  0  0  0              0 V3000
M  V30 BEGIN CTAB
M  V30 COUNTS 21 22 0 0 0
M  V30 BEGIN ATOM
M  V30 1 O 6.0621 0.9999 0.0 0
M  V30 2 C 5.1961 1.4999 0.0 0
M  V30 3 C 6.0621 0.0 0.0 0
M  V30 4 C 4.3301 0.9999 0.0 0
M  V30 5 C 5.1961 -0.5 0.0 0
M  V30 6 N 4.3301 0.0 0.0 0
M  V30 7 C 3.4641 -0.5 0.0 0
M  V30 8 C 2.598 0.0 0.0 0
M  V30 9 C 1.732 -0.5 0.0 0
M  V30 10 O 0.866 0.0 0.0 0
M  V30 11 C 0.0 -0.5 0.0 0
M  V30 12 C -0.866 0.0 0.0 0
M  V30 13 C 0.0 -1.4999 0.0 0
M  V30 14 C -1.732 -0.4999 0.0 0
M  V30 15 C -0.866 -1.9999 0.0 0
M  V30 16 C -1.732 -1.4999 0.0 0
M  V30 17 O -2.598 -1.9999 0.0 0
M  V30 18 C -3.4641 -1.4999 0.0 0
M  V30 19 C -4.3301 -1.9999 0.0 0
M  V30 20 C -5.1961 -1.4999 0.0 0
M  V30 21 C -6.0621 -1.9999 0.0 0
M  V30 END ATOM
M  V30 BEGIN BOND
M  V30 1 1 1 2
M  V30 2 1 1 3
M  V30 3 1 2 4
M  V30 4 1 3 5
M  V30 5 1 4 6
M  V30 6 1 6 7
M  V30 7 1 7 8
M  V30 8 1 8 9
M  V30 9 1 9 10
M  V30 10 1 10 11
M  V30 11 2 11 12
M  V30 12 1 11 13
M  V30 13 1 12 14
M  V30 14 2 13 15
M  V30 15 2 14 16
M  V30 16 1 16 17
M  V30 17 1 17 18
M  V30 18 1 18 19
M  V30 19 1 19 20
M  V30 20 1 20 21
M  V30 21 1 5 6
M  V30 22 1 15 16
M  V30 END BOND
M  V30 END CTAB
M  END
>  <Molecule Name>


>  <status>
-

>  <cas>
140-65-8

>  <name>
PRAMOXINE

>  <ID>
1080

>  <Smiles>
CCCCOc(cc1)ccc1OCCCN1CCOCC1

$$$$

Actelion Java MolfileCreator 2.0

  0  0  0  0  0  0              0 V3000
M  V30 BEGIN CTAB
M  V30 COUNTS 16 16 0 0 0
M  V30 BEGIN ATOM
M  V30 1 O 0.0 3.7778 0.0 0
M  V30 2 C 1.3087 3.0223 0.0 0
M  V30 3 N 1.3087 1.5111 0.0 0
M  V30 4 N 2.6174 3.7778 0.0 0
M  V30 5 C 2.6174 0.7555 0.0 0
M  V30 6 C 3.9261 3.0223 0.0 0
M  V30 7 O 2.4838 -0.622 0.0 0
M  V30 8 C 3.9261 1.5111 0.0 0
M  V30 9 O 5.2348 3.7778 0.0 0
M  V30 10 C 3.9261 0.0 0.0 0 CFG=2
M  V30 11 C 5.2348 0.7555 0.0 0
M  V30 12 C 5.2348 -0.7555 0.0 0
M  V30 13 C 2.8845 -1.0227 0.0 0
M  V30 14 C 6.5435 1.5111 0.0 0
M  V30 15 C 6.5435 0.0 0.0 0
M  V30 16 C 7.8522 -0.7555 0.0 0
M  V30 END ATOM
M  V30 BEGIN BOND
M  V30 1 2 1 2
M  V30 2 1 2 3
M  V30 3 1 2 4
M  V30 4 1 3 5
M  V30 5 1 4 6
M  V30 6 2 5 7
M  V30 7 1 5 8
M  V30 8 2 6 9
M  V30 9 1 10 8
M  V30 10 1 8 11
M  V30 11 1 10 12
M  V30 12 1 10 13 CFG=3
M  V30 13 1 11 14
M  V30 14 1 12 15
M  V30 15 1 15 16
M  V30 16 1 6 8
M  V30 END BOND
M  V30 BEGIN COLLECTION
M  V30 MDLV30/STERAC1 ATOMS=(1 10)
M  V30 END COLLECTION
M  V30 END CTAB
M  END
>  <Molecule Name>


>  <status>
-

>  <cas>
76-74-4

>  <name>
PENTOBARBITAL

>  <ID>
1081

>  <Smiles>
CCCC(C)C(CC)(C(NC(N1)=O)=O)C1=O

$$$$

Actelion Java MolfileCreator 2.0

  0  0  0  0  0  0              0 V3000
M  V30 BEGIN CTAB
M  V30 COUNTS 28 30 0 0 0
M  V30 BEGIN ATOM
M  V30 1 N 0.866 0.0 0.0 0 CHG=1
M  V30 2 C 1.732 -0.5 0.0 0
M  V30 3 C 0.866 1.0 0.0 0
M  V30 4 C 0.0 -0.5 0.0 0
M  V30 5 C 1.732 -1.5 0.0 0
M  V30 6 C 2.598 0.0 0.0 0
M  V30 7 C 2.598 -2.0 0.0 0
M  V30 8 C 3.4641 -0.5 0.0 0
M  V30 9 C 3.4641 -1.5 0.0 0
M  V30 10 C 4.3301 -2.0 0.0 0
M  V30 11 C 4.3301 -3.0 0.0 0
M  V30 12 C 5.1961 -1.5 0.0 0
M  V30 13 C 3.4641 -3.5 0.0 0
M  V30 14 C 5.1961 -3.5 0.0 0
M  V30 15 C 6.0621 -2.0 0.0 0
M  V30 16 C 5.1961 -0.5 0.0 0
M  V30 17 C 3.4641 -4.4999 0.0 0
M  V30 18 C 5.1961 -4.5 0.0 0
M  V30 19 C 6.9282 -1.5 0.0 0
M  V30 20 C 6.0621 0.0 0.0 0
M  V30 21 C 4.3301 -5.0 0.0 0
M  V30 22 C 6.9282 -0.5 0.0 0
M  V30 23 N 4.3301 -6.0 0.0 0
M  V30 24 N 7.7942 0.0 0.0 0
M  V30 25 C 3.4641 -6.5 0.0 0
M  V30 26 C 5.1961 -6.5 0.0 0
M  V30 27 C 8.6602 -0.5 0.0 0
M  V30 28 C 7.7942 0.9999 0.0 0
M  V30 END ATOM
M  V30 BEGIN BOND
M  V30 1 2 1 2
M  V30 2 1 1 3
M  V30 3 1 1 4
M  V30 4 1 2 5
M  V30 5 1 2 6
M  V30 6 2 5 7
M  V30 7 2 6 8
M  V30 8 1 7 9
M  V30 9 2 9 10
M  V30 10 1 10 11
M  V30 11 1 10 12
M  V30 12 2 11 13
M  V30 13 1 11 14
M  V30 14 2 12 15
M  V30 15 1 12 16
M  V30 16 1 13 17
M  V30 17 2 14 18
M  V30 18 1 15 19
M  V30 19 2 16 20
M  V30 20 2 17 21
M  V30 21 2 19 22
M  V30 22 1 21 23
M  V30 23 1 22 24
M  V30 24 1 23 25
M  V30 25 1 23 26
M  V30 26 1 24 27
M  V30 27 1 24 28
M  V30 28 1 8 9
M  V30 29 1 18 21
M  V30 30 1 20 22
M  V30 END BOND
M  V30 END CTAB
M  END
>  <Molecule Name>


>  <status>
DISCONTINUED

>  <cas>
548-62-9

>  <name>
GENTIAN VIOLET

>  <ID>
1082

>  <Smiles>
CN(C)c(cc1)ccc1C(c(cc1)ccc1N(C)C)=C(C=C1)C=CC1=[N+](C)C

$$$$

Actelion Java MolfileCreator 2.0

  0  0  0  0  0  0              0 V3000
M  V30 BEGIN CTAB
M  V30 COUNTS 54 61 0 0 0
M  V30 BEGIN ATOM
M  V30 1 O 10.3061 -4.037 0.0 0
M  V30 2 C 9.3926 -3.6303 0.0 0
M  V30 3 O 9.1847 -2.6522 0.0 0
M  V30 4 C 8.5266 -4.1303 0.0 0
M  V30 5 C 8.1902 -2.5476 0.0 0
M  V30 6 C 7.7834 -3.4612 0.0 0
M  V30 7 C 6.8053 -3.6691 0.0 0 CFG=2
M  V30 8 C 6.0621 -2.9999 0.0 0 CFG=2
M  V30 9 C 6.3985 -4.5826 0.0 0
M  V30 10 C 5.1961 -3.4999 0.0 0 CFG=1
M  V30 11 C 6.0621 -1.9999 0.0 0
M  V30 12 C 6.9757 -2.5932 0.0 0
M  V30 13 C 5.404 -4.4781 0.0 0
M  V30 14 O 4.3871 -4.0877 0.0 0
M  V30 15 C 4.3301 -2.9999 0.0 0 CFG=1
M  V30 16 C 5.1961 -1.4999 0.0 0
M  V30 17 C 4.3301 -1.9999 0.0 0 CFG=2
M  V30 18 C 3.4641 -3.4999 0.0 0
M  V30 19 C 3.4641 -1.4999 0.0 0 CFG=2
M  V30 20 C 2.598 -2.9999 0.0 0
M  V30 21 C 2.598 -1.9999 0.0 0 CFG=2
M  V30 22 C 3.4641 -0.4999 0.0 0
M  V30 23 C 4.3301 -0.9999 0.0 0
M  V30 24 C 1.732 -1.4999 0.0 0
M  V30 25 C 2.598 0.0 0.0 0
M  V30 26 C 1.732 -0.5 0.0 0 CFG=2
M  V30 27 O 0.866 0.0 0.0 0
M  V30 28 C 0.0 -0.5 0.0 0 CFG=2
M  V30 29 O -0.866 0.0 0.0 0
M  V30 30 C 0.0 -1.4999 0.0 0
M  V30 31 C -1.732 -0.4999 0.0 0 CFG=1
M  V30 32 C -0.866 -1.9999 0.0 0 CFG=1
M  V30 33 C -1.732 -1.4999 0.0 0 CFG=2
M  V30 34 C -2.598 0.0 0.0 0
M  V30 35 O -0.866 -2.9999 0.0 0
M  V30 36 O -2.598 -1.9999 0.0 0
M  V30 37 C -2.598 -2.9999 0.0 0 CFG=2
M  V30 38 O -3.4641 -3.4999 0.0 0
M  V30 39 C -1.732 -3.4999 0.0 0
M  V30 40 C -3.4641 -4.4999 0.0 0 CFG=1
M  V30 41 C -1.732 -4.4999 0.0 0 CFG=1
M  V30 42 C -2.598 -4.9999 0.0 0 CFG=2
M  V30 43 C -4.3301 -4.9999 0.0 0
M  V30 44 O -0.866 -4.9999 0.0 0
M  V30 45 O -2.598 -5.9999 0.0 0
M  V30 46 C -1.732 -6.4999 0.0 0 CFG=2
M  V30 47 O -1.732 -7.4999 0.0 0
M  V30 48 C -0.866 -6.0 0.0 0
M  V30 49 C -0.866 -8.0 0.0 0 CFG=1
M  V30 50 C 0.0 -6.5 0.0 0 CFG=1
M  V30 51 C 0.0 -7.5 0.0 0 CFG=2
M  V30 52 C -0.866 -9.0 0.0 0
M  V30 53 O 0.866 -6.0 0.0 0
M  V30 54 O 0.866 -8.0 0.0 0
M  V30 END ATOM
M  V30 BEGIN BOND
M  V30 1 2 1 2
M  V30 2 1 2 3
M  V30 3 1 2 4
M  V30 4 1 3 5
M  V30 5 2 4 6
M  V30 6 1 7 6 CFG=1
M  V30 7 1 8 7
M  V30 8 1 7 9
M  V30 9 1 10 8
M  V30 10 1 8 11
M  V30 11 1 8 12 CFG=1
M  V30 12 1 9 13
M  V30 13 1 10 14 CFG=1
M  V30 14 1 15 10
M  V30 15 1 11 16
M  V30 16 1 17 15
M  V30 17 1 15 18 CFG=3
M  V30 18 1 19 17
M  V30 19 1 18 20
M  V30 20 1 21 19
M  V30 21 1 19 22
M  V30 22 1 19 23 CFG=1
M  V30 23 1 21 24 CFG=3
M  V30 24 1 22 25
M  V30 25 1 26 24
M  V30 26 1 26 27 CFG=1
M  V30 27 1 28 27 CFG=1
M  V30 28 1 28 29
M  V30 29 1 28 30
M  V30 30 1 31 29
M  V30 31 1 32 30
M  V30 32 1 33 31
M  V30 33 1 31 34 CFG=1
M  V30 34 1 32 35 CFG=3
M  V30 35 1 33 36 CFG=3
M  V30 36 1 37 36 CFG=1
M  V30 37 1 37 38
M  V30 38 1 37 39
M  V30 39 1 40 38
M  V30 40 1 41 39
M  V30 41 1 42 40
M  V30 42 1 40 43 CFG=1
M  V30 43 1 41 44 CFG=3
M  V30 44 1 42 45 CFG=3
M  V30 45 1 46 45 CFG=1
M  V30 46 1 46 47
M  V30 47 1 46 48
M  V30 48 1 49 47
M  V30 49 1 50 48
M  V30 50 1 51 49
M  V30 51 1 49 52 CFG=1
M  V30 52 1 50 53 CFG=3
M  V30 53 1 51 54 CFG=3
M  V30 54 1 5 6
M  V30 55 1 10 13
M  V30 56 1 17 16 CFG=1
M  V30 57 1 20 21
M  V30 58 1 25 26
M  V30 59 1 32 33
M  V30 60 1 41 42
M  V30 61 1 50 51
M  V30 END BOND
M  V30 BEGIN COLLECTION
M  V30 MDLV30/STERAC1 ATOMS=(20 7 8 10 15 17 19 21 26 28 31 32 33 37 40 41 42 46 49 50 51)
M  V30 END COLLECTION
M  V30 END CTAB
M  END
>  <Molecule Name>


>  <status>
DISCONTINUED

>  <cas>
71-63-6

>  <name>
DIGITOXIN

>  <ID>
1083

>  <Smiles>
C[C@H]([C@H]([C@H](C1)O)O)O[C@H]1O[C@H]([C@@H](C)O[C@H](C1)O[C@H]([C@@H](C)O[C@H](C2)O[C@@H](CC3)C[C@@H](CC4)[C@@]3(C)[C@@H](CC[C@]3(C)[C@H](CC5)C(CO6)=CC6=O)[C@@H]4[C@]35O)[C@H]2O)[C@H]1O

$$$$

Actelion Java MolfileCreator 2.0

  0  0  0  0  0  0              0 V3000
M  V30 BEGIN CTAB
M  V30 COUNTS 16 17 0 0 0
M  V30 BEGIN ATOM
M  V30 1 O 3.4641 -0.5 0.0 0
M  V30 2 C 2.598 0.0 0.0 0
M  V30 3 O 1.732 -0.5 0.0 0
M  V30 4 C 2.598 1.0 0.0 0
M  V30 5 C 0.866 0.0 0.0 0
M  V30 6 C 3.4641 1.5 0.0 0
M  V30 7 C 1.732 1.4999 0.0 0
M  V30 8 C 0.0 -0.5 0.0 0
M  V30 9 C 3.4641 2.5 0.0 0
M  V30 10 C 1.732 2.5 0.0 0
M  V30 11 C -0.866 0.0 0.0 0
M  V30 12 C 0.0 -1.4999 0.0 0
M  V30 13 C 2.598 3.0 0.0 0
M  V30 14 C -1.732 -0.4999 0.0 0
M  V30 15 C -0.866 -1.9999 0.0 0
M  V30 16 C -1.732 -1.4999 0.0 0
M  V30 END ATOM
M  V30 BEGIN BOND
M  V30 1 2 1 2
M  V30 2 1 2 3
M  V30 3 1 2 4
M  V30 4 1 3 5
M  V30 5 2 4 6
M  V30 6 1 4 7
M  V30 7 1 5 8
M  V30 8 1 6 9
M  V30 9 2 7 10
M  V30 10 2 8 11
M  V30 11 1 8 12
M  V30 12 2 9 13
M  V30 13 1 11 14
M  V30 14 2 12 15
M  V30 15 2 14 16
M  V30 16 1 10 13
M  V30 17 1 15 16
M  V30 END BOND
M  V30 END CTAB
M  END
>  <Molecule Name>


>  <status>
DISCONTINUED

>  <cas>
120-51-4

>  <name>
BENZYL BENZOATE

>  <ID>
1084

>  <Smiles>
O=C(c1ccccc1)OCc1ccccc1

$$$$

Actelion Java MolfileCreator 2.0

  0  0  0  0  0  0              0 V3000
M  V30 BEGIN CTAB
M  V30 COUNTS 15 17 0 0 0
M  V30 BEGIN ATOM
M  V30 1 N 1.4558 1.4917 0.0 0
M  V30 2 C 1.299 0.0 0.0 0
M  V30 3 C 2.923 1.8036 0.0 0
M  V30 4 N 2.6693 -0.6101 0.0 0
M  V30 5 C 0.0 -0.75 0.0 0 CFG=1
M  V30 6 C 3.673 0.5046 0.0 0
M  V30 7 C -1.299 0.0 0.0 0
M  V30 8 C 0.0 -2.25 0.0 0
M  V30 9 C -2.598 -0.7499 0.0 0
M  V30 10 C -1.299 1.5 0.0 0
M  V30 11 C -1.299 -2.9999 0.0 0
M  V30 12 C -3.8971 0.0 0.0 0
M  V30 13 C -2.598 -2.2499 0.0 0
M  V30 14 C -2.598 2.25 0.0 0
M  V30 15 C -3.8971 1.5 0.0 0
M  V30 END ATOM
M  V30 BEGIN BOND
M  V30 1 2 1 2
M  V30 2 1 1 3
M  V30 3 1 2 4
M  V30 4 1 5 2 CFG=3
M  V30 5 1 3 6
M  V30 6 1 5 7
M  V30 7 1 5 8
M  V30 8 2 7 9
M  V30 9 1 7 10
M  V30 10 1 8 11
M  V30 11 1 9 12
M  V30 12 1 9 13
M  V30 13 2 10 14
M  V30 14 2 12 15
M  V30 15 1 4 6
M  V30 16 1 11 13
M  V30 17 1 14 15
M  V30 END BOND
M  V30 BEGIN COLLECTION
M  V30 MDLV30/STERAC1 ATOMS=(1 5)
M  V30 END COLLECTION
M  V30 END CTAB
M  END
>  <Molecule Name>


>  <status>
-

>  <cas>
84-22-0

>  <name>
TETRAHYDROZOLINE

>  <ID>
1085

>  <Smiles>
C1NC(C(CCC2)c3c2cccc3)=NC1

$$$$

Actelion Java MolfileCreator 2.0

  0  0  0  0  0  0              0 V3000
M  V30 BEGIN CTAB
M  V30 COUNTS 39 41 0 0 0
M  V30 BEGIN ATOM
M  V30 1 S 14.7462 3.7246 0.0 0
M  V30 2 O 14.9541 2.7465 0.0 0
M  V30 3 O 14.5382 4.7028 0.0 0
M  V30 4 N 13.768 3.5167 0.0 0
M  V30 5 C 15.7243 3.9325 0.0 0
M  V30 6 C 13.459 2.5657 0.0 0
M  V30 7 C 12.4808 2.3577 0.0 0
M  V30 8 C 14.1281 1.8225 0.0 0
M  V30 9 C 12.1718 1.4067 0.0 0
M  V30 10 C 13.8191 0.8715 0.0 0
M  V30 11 C 11.2583 0.9999 0.0 0
M  V30 12 C 12.841 0.6635 0.0 0
M  V30 13 C 11.3628 0.0054 0.0 0
M  V30 14 C 10.3923 1.5 0.0 0
M  V30 15 O 12.341 -0.2024 0.0 0
M  V30 16 C 10.6197 -0.6636 0.0 0
M  V30 17 O 10.3923 2.5 0.0 0
M  V30 18 C 9.5262 1.0 0.0 0
M  V30 19 C 10.8276 -1.6418 0.0 0
M  V30 20 C 8.6602 1.5 0.0 0
M  V30 21 C 9.5262 0.0 0.0 0
M  V30 22 C 10.0844 -2.3109 0.0 0
M  V30 23 C 7.7942 0.9999 0.0 0
M  V30 24 C 8.6602 -0.4999 0.0 0
M  V30 25 C 10.2923 -3.289 0.0 0
M  V30 26 C 7.7942 0.0 0.0 0
M  V30 27 O 6.9282 -0.5 0.0 0
M  V30 28 C 6.0621 0.0 0.0 0
M  V30 29 C 5.1961 -0.5 0.0 0
M  V30 30 C 4.3301 0.0 0.0 0
M  V30 31 N 3.4641 -0.5 0.0 0
M  V30 32 C 3.4641 -1.5 0.0 0
M  V30 33 C 2.598 0.0 0.0 0
M  V30 34 C 4.3301 -2.0 0.0 0
M  V30 35 C 1.732 -0.5 0.0 0
M  V30 36 C 4.3301 -3.0 0.0 0
M  V30 37 C 0.866 0.0 0.0 0
M  V30 38 C 5.1961 -3.5 0.0 0
M  V30 39 C 0.0 -0.5 0.0 0
M  V30 END ATOM
M  V30 BEGIN BOND
M  V30 1 2 1 2
M  V30 2 2 1 3
M  V30 3 1 1 4
M  V30 4 1 1 5
M  V30 5 1 4 6
M  V30 6 2 6 7
M  V30 7 1 6 8
M  V30 8 1 7 9
M  V30 9 2 8 10
M  V30 10 1 9 11
M  V30 11 2 9 12
M  V30 12 2 11 13
M  V30 13 1 11 14
M  V30 14 1 12 15
M  V30 15 1 13 16
M  V30 16 2 14 17
M  V30 17 1 14 18
M  V30 18 1 16 19
M  V30 19 2 18 20
M  V30 20 1 18 21
M  V30 21 1 19 22
M  V30 22 1 20 23
M  V30 23 2 21 24
M  V30 24 1 22 25
M  V30 25 2 23 26
M  V30 26 1 26 27
M  V30 27 1 27 28
M  V30 28 1 28 29
M  V30 29 1 29 30
M  V30 30 1 30 31
M  V30 31 1 31 32
M  V30 32 1 31 33
M  V30 33 1 32 34
M  V30 34 1 33 35
M  V30 35 1 34 36
M  V30 36 1 35 37
M  V30 37 1 36 38
M  V30 38 1 37 39
M  V30 39 1 10 12
M  V30 40 1 13 15
M  V30 41 1 24 26
M  V30 END BOND
M  V30 END CTAB
M  END
>  <Molecule Name>


>  <status>
-

>  <cas>
141626-36-0

>  <name>
DRONEDARONE

>  <ID>
1086

>  <Smiles>
CCCCc1c(C(c(cc2)ccc2OCCCN(CCCC)CCCC)=O)c(cc(cc2)NS(C)(=O)=O)c2o1

$$$$

Actelion Java MolfileCreator 2.0

  0  0  0  0  0  0              0 V3000
M  V30 BEGIN CTAB
M  V30 COUNTS 21 24 0 0 0
M  V30 BEGIN ATOM
M  V30 1 O 4.1684 -2.0429 0.0 0
M  V30 2 O 5.1961 -1.5 0.0 0
M  V30 3 C 3.3631 -1.6243 0.0 0 CFG=2
M  V30 4 C 5.1961 -0.5 0.0 0 CFG=1
M  V30 5 C 3.4641 -0.4999 0.0 0 CFG=1
M  V30 6 C 4.4645 -2.0808 0.0 0 CFG=2
M  V30 7 C 2.598 -1.9999 0.0 0 CFG=2
M  V30 8 O 4.3879 0.1558 0.0 0
M  V30 9 C 3.148 0.2597 0.0 0
M  V30 10 C 6.0621 0.0 0.0 0
M  V30 11 O 2.5315 0.0383 0.0 0
M  V30 12 C 4.3301 -3.0 0.0 0 CFG=1
M  V30 13 C 2.648 -0.6062 0.0 0
M  V30 14 C 1.732 -1.4999 0.0 0 CFG=2
M  V30 15 C 2.598 -2.9999 0.0 0
M  V30 16 C 1.732 -0.5 0.0 0 CFG=1
M  V30 17 C 3.4641 -3.4999 0.0 0
M  V30 18 C 5.1961 -3.5 0.0 0
M  V30 19 C 0.866 -1.9999 0.0 0
M  V30 20 O 0.866 0.0 0.0 0
M  V30 21 C 0.0 -0.5 0.0 0
M  V30 END ATOM
M  V30 BEGIN BOND
M  V30 1 1 1 2
M  V30 2 1 3 1 CFG=3
M  V30 3 1 4 2
M  V30 4 1 5 3
M  V30 5 1 6 3
M  V30 6 1 7 3
M  V30 7 1 4 8
M  V30 8 1 4 9
M  V30 9 1 4 10 CFG=1
M  V30 10 1 5 11 CFG=3
M  V30 11 1 12 6
M  V30 12 1 6 13 CFG=1
M  V30 13 1 14 7
M  V30 14 1 7 15 CFG=1
M  V30 15 1 16 11
M  V30 16 1 12 17
M  V30 17 1 12 18 CFG=3
M  V30 18 1 14 19 CFG=1
M  V30 19 1 16 20 CFG=1
M  V30 20 1 20 21
M  V30 21 1 5 8
M  V30 22 1 9 13
M  V30 23 1 14 16
M  V30 24 1 15 17
M  V30 END BOND
M  V30 BEGIN COLLECTION
M  V30 MDLV30/STERAC1 ATOMS=(8 3 4 5 6 7 12 14 16)
M  V30 END COLLECTION
M  V30 END CTAB
M  END
>  <Molecule Name>


>  <status>
-

>  <cas>
71963-77-4

>  <name>
ARTEMETHER

>  <ID>
1087

>  <Smiles>
C[C@H](CC[C@H]1[C@H]2C)[C@H](CC3)[C@]11OO[C@@]3(C)O[C@H]1O[C@@H]2OC

$$$$

Actelion Java MolfileCreator 2.0

  0  0  0  0  0  0              0 V3000
M  V30 BEGIN CTAB
M  V30 COUNTS 22 23 0 0 0
M  V30 BEGIN ATOM
M  V30 1 Cl 10.3923 -6.75 0.0 0
M  V30 2 C 10.3923 -5.25 0.0 0
M  V30 3 C 11.6913 -4.5 0.0 0
M  V30 4 C 9.0932 -4.4999 0.0 0
M  V30 5 C 11.6913 -3.0 0.0 0
M  V30 6 C 9.0932 -2.9999 0.0 0
M  V30 7 N 12.9903 -2.25 0.0 0
M  V30 8 C 10.3923 -2.2499 0.0 0
M  V30 9 C 12.9903 -0.75 0.0 0
M  V30 10 C 10.3923 -0.75 0.0 0
M  V30 11 C 11.6913 0.0 0.0 0
M  V30 12 N 9.0932 0.0 0.0 0
M  V30 13 C 7.7942 -0.75 0.0 0 CFG=2
M  V30 14 C 6.4951 0.0 0.0 0
M  V30 15 C 7.7942 -2.25 0.0 0
M  V30 16 C 5.1961 -0.75 0.0 0
M  V30 17 C 3.8971 0.0 0.0 0
M  V30 18 N 2.598 -0.75 0.0 0
M  V30 19 C 2.598 -2.25 0.0 0
M  V30 20 C 1.299 0.0 0.0 0
M  V30 21 C 3.8971 -3.0 0.0 0
M  V30 22 C 0.0 -0.75 0.0 0
M  V30 END ATOM
M  V30 BEGIN BOND
M  V30 1 1 1 2
M  V30 2 2 2 3
M  V30 3 1 2 4
M  V30 4 1 3 5
M  V30 5 2 4 6
M  V30 6 2 5 7
M  V30 7 1 5 8
M  V30 8 1 7 9
M  V30 9 2 8 10
M  V30 10 2 9 11
M  V30 11 1 10 12
M  V30 12 1 13 12 CFG=1
M  V30 13 1 13 14
M  V30 14 1 13 15
M  V30 15 1 14 16
M  V30 16 1 16 17
M  V30 17 1 17 18
M  V30 18 1 18 19
M  V30 19 1 18 20
M  V30 20 1 19 21
M  V30 21 1 20 22
M  V30 22 1 6 8
M  V30 23 1 10 11
M  V30 END BOND
M  V30 BEGIN COLLECTION
M  V30 MDLV30/STERAC1 ATOMS=(1 13)
M  V30 END COLLECTION
M  V30 END CTAB
M  END
>  <Molecule Name>


>  <status>
-

>  <cas>
54-05-7

>  <name>
CHLOROQUINE

>  <ID>
1088

>  <Smiles>
CCN(CC)CCCC(C)Nc1c(ccc(Cl)c2)c2ncc1

$$$$

Actelion Java MolfileCreator 2.0

  0  0  0  0  0  0              0 V3000
M  V30 BEGIN CTAB
M  V30 COUNTS 16 17 0 0 0
M  V30 BEGIN ATOM
M  V30 1 O -3.8847 -1.1032 0.0 0
M  V30 2 C -2.3856 -1.2607 0.0 0
M  V30 3 N -1.6319 -2.5661 0.0 0
M  V30 4 N -1.377 -0.1405 0.0 0
M  V30 5 C -0.1575 -2.2527 0.0 0
M  V30 6 C -2.245 -3.9432 0.0 0
M  V30 7 C 0.0 -0.7536 0.0 0 CFG=1
M  V30 8 O 0.7818 -3.4087 0.0 0
M  V30 9 C 1.2641 -1.5746 0.0 0
M  V30 10 C 1.3054 0.0 0.0 0
M  V30 11 C 1.2756 -3.0062 0.0 0
M  V30 12 C 2.6072 -0.8903 0.0 0
M  V30 13 C 1.3054 1.5073 0.0 0
M  V30 14 C 2.4494 -3.9008 0.0 0
M  V30 15 C 3.8714 -1.7112 0.0 0
M  V30 16 C 3.7925 -3.2165 0.0 0
M  V30 END ATOM
M  V30 BEGIN BOND
M  V30 1 2 1 2
M  V30 2 1 2 3
M  V30 3 1 2 4
M  V30 4 1 3 5
M  V30 5 1 3 6
M  V30 6 1 7 4
M  V30 7 2 5 8
M  V30 8 1 7 9
M  V30 9 1 7 10 CFG=1
M  V30 10 2 9 11
M  V30 11 1 9 12
M  V30 12 1 10 13
M  V30 13 1 11 14
M  V30 14 2 12 15
M  V30 15 2 14 16
M  V30 16 1 5 7
M  V30 17 1 15 16
M  V30 END BOND
M  V30 BEGIN COLLECTION
M  V30 MDLV30/STERAC1 ATOMS=(1 7)
M  V30 END COLLECTION
M  V30 END CTAB
M  END
>  <Molecule Name>


>  <status>
DISCONTINUED

>  <cas>
50-12-4

>  <name>
MEPHENYTOIN

>  <ID>
1089

>  <Smiles>
CCC(C(N1C)=O)(c2ccccc2)NC1=O

$$$$

Actelion Java MolfileCreator 2.0

  0  0  0  0  0  0              0 V3000
M  V30 BEGIN CTAB
M  V30 COUNTS 23 24 0 0 0
M  V30 BEGIN ATOM
M  V30 1 O 6.876 1.3132 0.0 0
M  V30 2 C 6.5551 0.0 0.0 0
M  V30 3 C 5.2441 -0.7569 0.0 0
M  V30 4 C 7.8661 -0.7569 0.0 0
M  V30 5 C 5.2441 -2.2707 0.0 0
M  V30 6 C 5.2441 0.7569 0.0 0
M  V30 7 C 3.933 0.0 0.0 0
M  V30 8 C 9.1771 0.0 0.0 0
M  V30 9 C 3.933 -3.0276 0.0 0
M  V30 10 C 6.5551 -3.0276 0.0 0
M  V30 11 C 6.3946 1.6141 0.0 0
M  V30 12 C 3.933 1.5138 0.0 0
M  V30 13 C 2.622 -0.7569 0.0 0 CFG=1
M  V30 14 C 3.933 -4.5415 0.0 0
M  V30 15 C 6.5551 -4.5415 0.0 0
M  V30 16 C 6.5551 3.0276 0.0 0
M  V30 17 C 3.933 3.0276 0.0 0
M  V30 18 N 1.311 0.0 0.0 0
M  V30 19 C 2.622 -2.2707 0.0 0
M  V30 20 C 5.2441 -5.2984 0.0 0
M  V30 21 C 5.2441 3.7846 0.0 0
M  V30 22 C 1.311 1.5138 0.0 0
M  V30 23 C 0.0 -0.7569 0.0 0
M  V30 END ATOM
M  V30 BEGIN BOND
M  V30 1 2 1 2
M  V30 2 1 2 3
M  V30 3 1 2 4
M  V30 4 1 3 5
M  V30 5 1 3 6
M  V30 6 1 3 7
M  V30 7 1 4 8
M  V30 8 2 5 9
M  V30 9 1 5 10
M  V30 10 2 6 11
M  V30 11 1 6 12
M  V30 12 1 13 7
M  V30 13 1 9 14
M  V30 14 2 10 15
M  V30 15 1 11 16
M  V30 16 2 12 17
M  V30 17 1 13 18 CFG=3
M  V30 18 1 13 19
M  V30 19 2 14 20
M  V30 20 2 16 21
M  V30 21 1 18 22
M  V30 22 1 18 23
M  V30 23 1 15 20
M  V30 24 1 17 21
M  V30 END BOND
M  V30 BEGIN COLLECTION
M  V30 MDLV30/STERAC1 ATOMS=(1 13)
M  V30 END COLLECTION
M  V30 END CTAB
M  END
>  <Molecule Name>


>  <status>
-

>  <cas>
76-99-3

>  <name>
METHADONE

>  <ID>
1090

>  <Smiles>
CCC(C(CC(C)N(C)C)(c1ccccc1)c1ccccc1)=O

$$$$

Actelion Java MolfileCreator 2.0

  0  0  0  0  0  0              0 V3000
M  V30 BEGIN CTAB
M  V30 COUNTS 20 21 0 0 0
M  V30 BEGIN ATOM
M  V30 1 O 3.4641 -0.5 0.0 0
M  V30 2 C 4.3301 0.0 0.0 0 CFG=2
M  V30 3 C 2.598 0.0 0.0 0
M  V30 4 C 5.1961 -0.5 0.0 0
M  V30 5 C 4.3301 0.9999 0.0 0
M  V30 6 C 4.3301 -1.0 0.0 0
M  V30 7 C 1.732 -0.5 0.0 0
M  V30 8 N 5.1961 -1.5 0.0 0
M  V30 9 C 6.0621 0.0 0.0 0
M  V30 10 C 5.1961 1.4999 0.0 0
M  V30 11 C 3.4641 1.5 0.0 0
M  V30 12 N 0.866 0.0 0.0 0
M  V30 13 C 6.0621 -2.0 0.0 0
M  V30 14 C 6.9282 -0.5 0.0 0
M  V30 15 C 5.1961 2.4999 0.0 0
M  V30 16 C 3.4641 2.5 0.0 0
M  V30 17 C 0.866 1.0 0.0 0
M  V30 18 C 0.0 -0.5 0.0 0
M  V30 19 C 6.9282 -1.5 0.0 0
M  V30 20 C 4.3301 2.9999 0.0 0
M  V30 END ATOM
M  V30 BEGIN BOND
M  V30 1 1 2 1
M  V30 2 1 1 3
M  V30 3 1 2 4
M  V30 4 1 2 5
M  V30 5 1 2 6 CFG=3
M  V30 6 1 3 7
M  V30 7 2 4 8
M  V30 8 1 4 9
M  V30 9 2 5 10
M  V30 10 1 5 11
M  V30 11 1 7 12
M  V30 12 1 8 13
M  V30 13 2 9 14
M  V30 14 1 10 15
M  V30 15 2 11 16
M  V30 16 1 12 17
M  V30 17 1 12 18
M  V30 18 2 13 19
M  V30 19 2 15 20
M  V30 20 1 14 19
M  V30 21 1 16 20
M  V30 END BOND
M  V30 BEGIN COLLECTION
M  V30 MDLV30/STERAC1 ATOMS=(1 2)
M  V30 END COLLECTION
M  V30 END CTAB
M  END
>  <Molecule Name>


>  <status>
-

>  <cas>
469-21-6

>  <name>
DOXYLAMINE

>  <ID>
1091

>  <Smiles>
CC(c1ccccc1)(c1ncccc1)OCCN(C)C

$$$$

Actelion Java MolfileCreator 2.0

  0  0  0  0  0  0              0 V3000
M  V30 BEGIN CTAB
M  V30 COUNTS 20 23 0 0 0
M  V30 BEGIN ATOM
M  V30 1 O 1.482 1.4999 0.0 0
M  V30 2 O 0.866 1.0 0.0 0
M  V30 3 C 2.7377 1.1485 0.0 0 CFG=2
M  V30 4 C 0.866 0.0 0.0 0 CFG=1
M  V30 5 C 2.598 0.0 0.0 0 CFG=1
M  V30 6 C 1.8352 1.5907 0.0 0 CFG=2
M  V30 7 C 3.4641 1.4999 0.0 0 CFG=2
M  V30 8 O 1.6742 -0.6558 0.0 0
M  V30 9 C 2.914 -0.7597 0.0 0
M  V30 10 C 0.0 -0.5 0.0 0
M  V30 11 O 3.5305 -0.5383 0.0 0
M  V30 12 C 1.732 2.4999 0.0 0 CFG=1
M  V30 13 C 3.414 0.1062 0.0 0
M  V30 14 C 4.3301 0.9999 0.0 0 CFG=2
M  V30 15 C 3.4641 2.4999 0.0 0
M  V30 16 C 4.3301 0.0 0.0 0 CFG=1
M  V30 17 C 2.598 2.9999 0.0 0
M  V30 18 C 0.866 3.0 0.0 0
M  V30 19 C 5.1961 1.4999 0.0 0
M  V30 20 O 5.1961 -0.5 0.0 0
M  V30 END ATOM
M  V30 BEGIN BOND
M  V30 1 1 1 2
M  V30 2 1 3 1 CFG=3
M  V30 3 1 4 2
M  V30 4 1 5 3
M  V30 5 1 6 3
M  V30 6 1 7 3
M  V30 7 1 4 8
M  V30 8 1 4 9
M  V30 9 1 4 10 CFG=1
M  V30 10 1 5 11 CFG=3
M  V30 11 1 12 6
M  V30 12 1 6 13 CFG=1
M  V30 13 1 14 7
M  V30 14 1 7 15 CFG=1
M  V30 15 1 16 11
M  V30 16 1 12 17
M  V30 17 1 12 18 CFG=3
M  V30 18 1 14 19 CFG=1
M  V30 19 1 16 20 CFG=1
M  V30 20 1 5 8
M  V30 21 1 9 13
M  V30 22 1 14 16
M  V30 23 1 15 17
M  V30 END BOND
M  V30 BEGIN COLLECTION
M  V30 MDLV30/STERAC1 ATOMS=(8 3 4 5 6 7 12 14 16)
M  V30 END COLLECTION
M  V30 END CTAB
M  END
>  <Molecule Name>


>  <status>
-

>  <cas>
71939-50-9

>  <name>
DIHYDROARTEMISININ

>  <ID>
1092

>  <Smiles>
C[C@H](CC[C@H]1[C@H]2C)[C@H](CC3)[C@]11OO[C@@]3(C)O[C@H]1O[C@@H]2O

$$$$

Actelion Java MolfileCreator 2.0

  0  0  0  0  0  0              0 V3000
M  V30 BEGIN CTAB
M  V30 COUNTS 11 10 0 0 0
M  V30 BEGIN ATOM
M  V30 1 O 4.3301 0.0 0.0 0
M  V30 2 C 3.4641 -0.5 0.0 0
M  V30 3 O 2.598 0.0 0.0 0
M  V30 4 N 3.4641 -1.5 0.0 0
M  V30 5 C 1.732 -0.5 0.0 0 CFG=2
M  V30 6 C 0.866 0.0 0.0 0
M  V30 7 C 1.732 -1.5 0.0 0
M  V30 8 N 0.0 -0.5 0.0 0 CHG=1
M  V30 9 C 0.4999 -1.366 0.0 0
M  V30 10 C -0.866 -0.9999 0.0 0
M  V30 11 C -0.4999 0.366 0.0 0
M  V30 END ATOM
M  V30 BEGIN BOND
M  V30 1 2 1 2
M  V30 2 1 2 3
M  V30 3 1 2 4
M  V30 4 1 5 3 CFG=1
M  V30 5 1 5 6
M  V30 6 1 5 7
M  V30 7 1 6 8
M  V30 8 1 8 9
M  V30 9 1 8 10
M  V30 10 1 8 11
M  V30 END BOND
M  V30 BEGIN COLLECTION
M  V30 MDLV30/STERAC1 ATOMS=(1 5)
M  V30 END COLLECTION
M  V30 END CTAB
M  END
>  <Molecule Name>


>  <status>
-

>  <cas>
590-63-6

>  <name>
BETHANECHOL

>  <ID>
1093

>  <Smiles>
CC(C[N+](C)(C)C)OC(N)=O

$$$$

Actelion Java MolfileCreator 2.0

  0  0  0  0  0  0              0 V3000
M  V30 BEGIN CTAB
M  V30 COUNTS 22 24 0 0 0
M  V30 BEGIN ATOM
M  V30 1 O 3.4641 -0.5 0.0 0
M  V30 2 C 2.598 0.0 0.0 0 CFG=2
M  V30 3 C 2.598 1.0 0.0 0
M  V30 4 C 2.598 -1.0 0.0 0
M  V30 5 C 1.732 -0.5 0.0 0
M  V30 6 C 3.4641 1.5 0.0 0
M  V30 7 C 1.732 1.4999 0.0 0
M  V30 8 C 1.732 -1.5 0.0 0
M  V30 9 C 3.4641 -1.4999 0.0 0
M  V30 10 C 0.866 0.0 0.0 0
M  V30 11 C 3.4641 2.5 0.0 0
M  V30 12 C 1.732 2.5 0.0 0
M  V30 13 C 1.732 -2.5 0.0 0
M  V30 14 C 3.4641 -2.4999 0.0 0
M  V30 15 N 0.0 -0.5 0.0 0
M  V30 16 C 2.598 3.0 0.0 0
M  V30 17 C 2.598 -2.9999 0.0 0
M  V30 18 C -0.866 0.0 0.0 0
M  V30 19 C 0.0 -1.4999 0.0 0
M  V30 20 C -1.732 -0.4999 0.0 0
M  V30 21 C -0.866 -1.9999 0.0 0
M  V30 22 C -1.732 -1.4999 0.0 0
M  V30 END ATOM
M  V30 BEGIN BOND
M  V30 1 1 2 1
M  V30 2 1 2 3
M  V30 3 1 2 4 CFG=1
M  V30 4 1 2 5
M  V30 5 2 3 6
M  V30 6 1 3 7
M  V30 7 1 4 8
M  V30 8 1 4 9
M  V30 9 1 5 10
M  V30 10 1 6 11
M  V30 11 2 7 12
M  V30 12 1 8 13
M  V30 13 1 9 14
M  V30 14 1 10 15
M  V30 15 2 11 16
M  V30 16 1 13 17
M  V30 17 1 15 18
M  V30 18 1 15 19
M  V30 19 1 18 20
M  V30 20 1 19 21
M  V30 21 1 20 22
M  V30 22 1 12 16
M  V30 23 1 14 17
M  V30 24 1 21 22
M  V30 END BOND
M  V30 BEGIN COLLECTION
M  V30 MDLV30/STERAC1 ATOMS=(1 2)
M  V30 END COLLECTION
M  V30 END CTAB
M  END
>  <Molecule Name>


>  <status>
-

>  <cas>
144-11-6

>  <name>
TRIHEXYPHENIDYL

>  <ID>
1094

>  <Smiles>
OC(CCN1CCCCC1)(C1CCCCC1)c1ccccc1

$$$$

Actelion Java MolfileCreator 2.0

  0  0  0  0  0  0              0 V3000
M  V30 BEGIN CTAB
M  V30 COUNTS 11 11 0 0 0
M  V30 BEGIN ATOM
M  V30 1 O -1.4894 -2.6159 0.0 0
M  V30 2 C -1.0826 -1.7024 0.0 0
M  V30 3 O -0.1045 -1.4945 0.0 0
M  V30 4 N -1.5826 -0.8364 0.0 0
M  V30 5 C 0.0 -0.5 0.0 0 CFG=2
M  V30 6 C -0.9135 -0.0932 0.0 0
M  V30 7 C -2.5771 -0.7318 0.0 0
M  V30 8 C 0.866 0.0 0.0 0
M  V30 9 C 0.8386 -1.0446 0.0 0
M  V30 10 O -1.1214 0.8848 0.0 0
M  V30 11 C 1.732 -0.5 0.0 0
M  V30 END ATOM
M  V30 BEGIN BOND
M  V30 1 2 1 2
M  V30 2 1 2 3
M  V30 3 1 2 4
M  V30 4 1 5 3
M  V30 5 1 4 6
M  V30 6 1 4 7
M  V30 7 1 5 8
M  V30 8 1 5 9 CFG=1
M  V30 9 2 6 10
M  V30 10 1 8 11
M  V30 11 1 5 6
M  V30 END BOND
M  V30 BEGIN COLLECTION
M  V30 MDLV30/STERAC1 ATOMS=(1 5)
M  V30 END COLLECTION
M  V30 END CTAB
M  END
>  <Molecule Name>


>  <status>
DISCONTINUED

>  <cas>
115-67-3

>  <name>
PARAMETHADIONE

>  <ID>
1095

>  <Smiles>
CCC(C)(C(N1C)=O)OC1=O

$$$$

Actelion Java MolfileCreator 2.0

  0  0  0  0  0  0              0 V3000
M  V30 BEGIN CTAB
M  V30 COUNTS 17 17 0 0 0
M  V30 BEGIN ATOM
M  V30 1 O 0.0 3.7762 0.0 0
M  V30 2 C 1.3081 3.0209 0.0 0
M  V30 3 N 1.3081 1.5104 0.0 0
M  V30 4 N 2.6162 3.7762 0.0 0
M  V30 5 C 2.6162 0.7552 0.0 0
M  V30 6 C 3.9243 3.0209 0.0 0
M  V30 7 O 2.4827 -0.6217 0.0 0
M  V30 8 C 3.9243 1.5104 0.0 0
M  V30 9 O 5.2325 3.7762 0.0 0
M  V30 10 C 3.9243 0.0 0.0 0 CFG=2
M  V30 11 C 5.2325 0.7552 0.0 0
M  V30 12 C 5.2325 -0.7552 0.0 0
M  V30 13 C 2.8832 -1.0222 0.0 0
M  V30 14 C 6.5406 1.5104 0.0 0
M  V30 15 C 6.5406 0.0 0.0 0
M  V30 16 C 7.8487 0.7552 0.0 0
M  V30 17 C 7.8487 -0.7552 0.0 0
M  V30 END ATOM
M  V30 BEGIN BOND
M  V30 1 2 1 2
M  V30 2 1 2 3
M  V30 3 1 2 4
M  V30 4 1 3 5
M  V30 5 1 4 6
M  V30 6 2 5 7
M  V30 7 1 5 8
M  V30 8 2 6 9
M  V30 9 1 10 8
M  V30 10 1 8 11
M  V30 11 1 10 12
M  V30 12 1 10 13 CFG=3
M  V30 13 1 11 14
M  V30 14 1 12 15
M  V30 15 2 14 16
M  V30 16 1 15 17
M  V30 17 1 6 8
M  V30 END BOND
M  V30 BEGIN COLLECTION
M  V30 MDLV30/STERAC1 ATOMS=(1 10)
M  V30 END COLLECTION
M  V30 END CTAB
M  END
>  <Molecule Name>


>  <status>
DISCONTINUED

>  <cas>
76-73-3

>  <name>
SECOBARBITAL

>  <ID>
1096

>  <Smiles>
CCCC(C)C(CC=C)(C(NC(N1)=O)=O)C1=O

$$$$

Actelion Java MolfileCreator 2.0

  0  0  0  0  0  0              0 V3000
M  V30 BEGIN CTAB
M  V30 COUNTS 18 19 0 0 0
M  V30 BEGIN ATOM
M  V30 1 O 7.312 0.5304 0.0 0
M  V30 2 C 6.3339 0.3225 0.0 0
M  V30 3 N 5.6648 1.0657 0.0 0
M  V30 4 N 6.0249 -0.6284 0.0 0
M  V30 5 C 4.6866 0.8577 0.0 0
M  V30 6 C 5.9738 2.0167 0.0 0
M  V30 7 C 5.0467 -0.8364 0.0 0
M  V30 8 C 6.694 -1.3716 0.0 0
M  V30 9 O 4.0175 1.6009 0.0 0
M  V30 10 C 4.3776 -0.0932 0.0 0
M  V30 11 N 4.5467 -1.7024 0.0 0
M  V30 12 N 3.4641 -0.5 0.0 0
M  V30 13 C 3.5686 -1.4945 0.0 0
M  V30 14 C 2.598 0.0 0.0 0
M  V30 15 C 1.732 -0.5 0.0 0 CFG=2
M  V30 16 O 1.732 -1.5 0.0 0
M  V30 17 C 0.866 0.0 0.0 0
M  V30 18 O 0.0 -0.5 0.0 0
M  V30 END ATOM
M  V30 BEGIN BOND
M  V30 1 2 1 2
M  V30 2 1 2 3
M  V30 3 1 2 4
M  V30 4 1 3 5
M  V30 5 1 3 6
M  V30 6 1 4 7
M  V30 7 1 4 8
M  V30 8 2 5 9
M  V30 9 1 5 10
M  V30 10 1 7 11
M  V30 11 1 10 12
M  V30 12 2 11 13
M  V30 13 1 12 14
M  V30 14 1 15 14
M  V30 15 1 15 16 CFG=3
M  V30 16 1 15 17
M  V30 17 1 17 18
M  V30 18 2 7 10
M  V30 19 1 12 13
M  V30 END BOND
M  V30 BEGIN COLLECTION
M  V30 MDLV30/STERAC1 ATOMS=(1 15)
M  V30 END COLLECTION
M  V30 END CTAB
M  END
>  <Molecule Name>


>  <status>
DISCONTINUED

>  <cas>
479-18-5

>  <name>
DYPHYLLINE

>  <ID>
1097

>  <Smiles>
CN(c1c(C(N2C)=O)n(CC(CO)O)cn1)C2=O

$$$$

Actelion Java MolfileCreator 2.0

  0  0  0  0  0  0              0 V3000
M  V30 BEGIN CTAB
M  V30 COUNTS 20 22 0 0 0
M  V30 BEGIN ATOM
M  V30 1 S 7.7942 -2.2499 0.0 0
M  V30 2 C 7.7942 -0.75 0.0 0
M  V30 3 C 6.4951 -2.9999 0.0 0
M  V30 4 C 6.4951 0.0 0.0 0
M  V30 5 C 9.0932 0.0 0.0 0
M  V30 6 C 5.1961 -2.25 0.0 0
M  V30 7 C 6.4951 -4.5 0.0 0
M  V30 8 N 5.1961 -0.75 0.0 0
M  V30 9 C 6.4951 1.5 0.0 0
M  V30 10 C 9.0932 1.5 0.0 0
M  V30 11 C 3.8971 -3.0 0.0 0
M  V30 12 C 5.1961 -5.25 0.0 0
M  V30 13 C 3.8971 0.0 0.0 0
M  V30 14 C 7.7942 2.25 0.0 0
M  V30 15 C 3.8971 -4.5 0.0 0
M  V30 16 C 2.598 -0.75 0.0 0 CFG=1
M  V30 17 N 1.299 0.0 0.0 0
M  V30 18 C 2.598 -2.25 0.0 0
M  V30 19 C 1.299 1.5 0.0 0
M  V30 20 C 0.0 -0.75 0.0 0
M  V30 END ATOM
M  V30 BEGIN BOND
M  V30 1 1 1 2
M  V30 2 1 1 3
M  V30 3 2 2 4
M  V30 4 1 2 5
M  V30 5 2 3 6
M  V30 6 1 3 7
M  V30 7 1 4 8
M  V30 8 1 4 9
M  V30 9 2 5 10
M  V30 10 1 6 11
M  V30 11 2 7 12
M  V30 12 1 8 13
M  V30 13 2 9 14
M  V30 14 2 11 15
M  V30 15 1 16 13
M  V30 16 1 16 17 CFG=3
M  V30 17 1 16 18
M  V30 18 1 17 19
M  V30 19 1 17 20
M  V30 20 1 6 8
M  V30 21 1 10 14
M  V30 22 1 12 15
M  V30 END BOND
M  V30 BEGIN COLLECTION
M  V30 MDLV30/STERAC1 ATOMS=(1 16)
M  V30 END COLLECTION
M  V30 END CTAB
M  END
>  <Molecule Name>


>  <status>
-

>  <cas>
60-87-7

>  <name>
PROMETHAZINE

>  <ID>
1098

>  <Smiles>
CC(CN1c(cccc2)c2Sc2c1cccc2)N(C)C

$$$$

Actelion Java MolfileCreator 2.0

  0  0  0  0  0  0              0 V3000
M  V30 BEGIN CTAB
M  V30 COUNTS 20 21 0 0 0
M  V30 BEGIN ATOM
M  V30 1 Br 7.7942 -2.0 0.0 0
M  V30 2 C 6.9282 -1.5 0.0 0
M  V30 3 C 6.9282 -0.5 0.0 0
M  V30 4 C 6.0621 -2.0 0.0 0
M  V30 5 C 6.0621 0.0 0.0 0
M  V30 6 C 5.1961 -1.5 0.0 0
M  V30 7 C 5.1961 -0.5 0.0 0
M  V30 8 C 4.3301 0.0 0.0 0 CFG=1
M  V30 9 O 3.4641 -0.5 0.0 0
M  V30 10 C 4.3301 1.0 0.0 0
M  V30 11 C 2.598 0.0 0.0 0
M  V30 12 C 5.1961 1.4999 0.0 0
M  V30 13 C 3.4641 1.5 0.0 0
M  V30 14 C 1.732 -0.5 0.0 0
M  V30 15 C 5.1961 2.4999 0.0 0
M  V30 16 C 3.4641 2.5 0.0 0
M  V30 17 N 0.866 0.0 0.0 0
M  V30 18 C 4.3301 2.9999 0.0 0
M  V30 19 C 0.866 1.0 0.0 0
M  V30 20 C 0.0 -0.5 0.0 0
M  V30 END ATOM
M  V30 BEGIN BOND
M  V30 1 1 1 2
M  V30 2 2 2 3
M  V30 3 1 2 4
M  V30 4 1 3 5
M  V30 5 2 4 6
M  V30 6 2 5 7
M  V30 7 1 8 7
M  V30 8 1 8 9 CFG=1
M  V30 9 1 8 10
M  V30 10 1 9 11
M  V30 11 2 10 12
M  V30 12 1 10 13
M  V30 13 1 11 14
M  V30 14 1 12 15
M  V30 15 2 13 16
M  V30 16 1 14 17
M  V30 17 2 15 18
M  V30 18 1 17 19
M  V30 19 1 17 20
M  V30 20 1 6 7
M  V30 21 1 16 18
M  V30 END BOND
M  V30 BEGIN COLLECTION
M  V30 MDLV30/STERAC1 ATOMS=(1 8)
M  V30 END COLLECTION
M  V30 END CTAB
M  END
>  <Molecule Name>


>  <status>
DISCONTINUED

>  <cas>
1808-12-4

>  <name>
BROMODIPHENHYDRAMINE

>  <ID>
1099

>  <Smiles>
CN(C)CCOC(c1ccccc1)c(cc1)ccc1Br

$$$$

Actelion Java MolfileCreator 2.0

  0  0  0  0  0  0              0 V3000
M  V30 BEGIN CTAB
M  V30 COUNTS 21 23 0 0 0
M  V30 BEGIN ATOM
M  V30 1 O 3.4641 -0.5 0.0 0
M  V30 2 C 2.598 0.0 0.0 0 CFG=2
M  V30 3 C 2.598 1.0 0.0 0
M  V30 4 C 2.598 -1.0 0.0 0
M  V30 5 C 1.732 -0.5 0.0 0
M  V30 6 C 3.4641 1.5 0.0 0
M  V30 7 C 1.732 1.4999 0.0 0
M  V30 8 C 1.789 -1.5877 0.0 0
M  V30 9 C 3.407 -1.5877 0.0 0
M  V30 10 C 0.866 0.0 0.0 0
M  V30 11 C 3.4641 2.5 0.0 0
M  V30 12 C 1.732 2.5 0.0 0
M  V30 13 C 2.098 -2.5388 0.0 0
M  V30 14 C 3.098 -2.5388 0.0 0
M  V30 15 N 0.0 -0.5 0.0 0
M  V30 16 C 2.598 3.0 0.0 0
M  V30 17 C -0.866 0.0 0.0 0
M  V30 18 C 0.0 -1.4999 0.0 0
M  V30 19 C -1.732 -0.4999 0.0 0
M  V30 20 C -0.866 -1.9999 0.0 0
M  V30 21 C -1.732 -1.4999 0.0 0
M  V30 END ATOM
M  V30 BEGIN BOND
M  V30 1 1 2 1
M  V30 2 1 2 3
M  V30 3 1 2 4 CFG=1
M  V30 4 1 2 5
M  V30 5 2 3 6
M  V30 6 1 3 7
M  V30 7 1 4 8
M  V30 8 1 4 9
M  V30 9 1 5 10
M  V30 10 1 6 11
M  V30 11 2 7 12
M  V30 12 1 8 13
M  V30 13 1 9 14
M  V30 14 1 10 15
M  V30 15 2 11 16
M  V30 16 1 15 17
M  V30 17 1 15 18
M  V30 18 1 17 19
M  V30 19 1 18 20
M  V30 20 1 19 21
M  V30 21 1 12 16
M  V30 22 1 13 14
M  V30 23 1 20 21
M  V30 END BOND
M  V30 BEGIN COLLECTION
M  V30 MDLV30/STERAC1 ATOMS=(1 2)
M  V30 END COLLECTION
M  V30 END CTAB
M  END
>  <Molecule Name>


>  <status>
DISCONTINUED

>  <cas>
77-39-4

>  <name>
CYCRIMINE

>  <ID>
1100

>  <Smiles>
OC(CCN1CCCCC1)(C1CCCC1)c1ccccc1

$$$$

Actelion Java MolfileCreator 2.0

  0  0  0  0  0  0              0 V3000
M  V30 BEGIN CTAB
M  V30 COUNTS 22 24 0 0 0
M  V30 BEGIN ATOM
M  V30 1 S 6.0621 0.9999 0.0 0
M  V30 2 C 5.1961 1.4999 0.0 0
M  V30 3 C 6.0621 0.0 0.0 0
M  V30 4 C 4.3301 0.9999 0.0 0
M  V30 5 C 5.1961 2.4999 0.0 0
M  V30 6 C 5.1961 -0.5 0.0 0
M  V30 7 C 6.9282 -0.4999 0.0 0
M  V30 8 N 4.3301 0.0 0.0 0
M  V30 9 C 3.4641 1.5 0.0 0
M  V30 10 C 4.3301 2.9999 0.0 0
M  V30 11 C 5.1961 -1.5 0.0 0
M  V30 12 C 6.9282 -1.4999 0.0 0
M  V30 13 C 3.4641 -0.5 0.0 0
M  V30 14 C 3.4641 2.5 0.0 0
M  V30 15 C 6.0621 -1.9999 0.0 0
M  V30 16 C 2.598 0.0 0.0 0 CFG=1
M  V30 17 N 1.732 -0.5 0.0 0
M  V30 18 C 2.598 1.0 0.0 0
M  V30 19 C 1.732 -1.5 0.0 0
M  V30 20 C 0.866 0.0 0.0 0
M  V30 21 C 2.598 -1.9999 0.0 0
M  V30 22 C 0.0 -0.5 0.0 0
M  V30 END ATOM
M  V30 BEGIN BOND
M  V30 1 1 1 2
M  V30 2 1 1 3
M  V30 3 2 2 4
M  V30 4 1 2 5
M  V30 5 2 3 6
M  V30 6 1 3 7
M  V30 7 1 4 8
M  V30 8 1 4 9
M  V30 9 2 5 10
M  V30 10 1 6 11
M  V30 11 2 7 12
M  V30 12 1 8 13
M  V30 13 2 9 14
M  V30 14 2 11 15
M  V30 15 1 16 13
M  V30 16 1 16 17 CFG=1
M  V30 17 1 16 18
M  V30 18 1 17 19
M  V30 19 1 17 20
M  V30 20 1 19 21
M  V30 21 1 20 22
M  V30 22 1 6 8
M  V30 23 1 10 14
M  V30 24 1 12 15
M  V30 END BOND
M  V30 BEGIN COLLECTION
M  V30 MDLV30/STERAC1 ATOMS=(1 16)
M  V30 END COLLECTION
M  V30 END CTAB
M  END
>  <Molecule Name>


>  <status>
DISCONTINUED

>  <cas>
522-00-9

>  <name>
ETHOPROPAZINE

>  <ID>
1101

>  <Smiles>
CCN(CC)C(C)CN1c(cccc2)c2Sc2c1cccc2

$$$$

Actelion Java MolfileCreator 2.0

  0  0  0  0  0  0              0 V3000
M  V30 BEGIN CTAB
M  V30 COUNTS 23 25 0 0 0
M  V30 BEGIN ATOM
M  V30 1 O 2.598 -1.9999 0.0 0
M  V30 2 C 3.4641 -1.4999 0.0 0
M  V30 3 C 4.3301 -1.9999 0.0 0
M  V30 4 C 3.4641 -0.5 0.0 0
M  V30 5 C 5.1961 -1.4999 0.0 0
M  V30 6 C 4.3301 -2.9999 0.0 0
M  V30 7 C 4.3301 0.0 0.0 0
M  V30 8 C 2.598 0.0 0.0 0 CFG=2
M  V30 9 O 5.1961 -0.4999 0.0 0
M  V30 10 C 6.0621 -1.9999 0.0 0
M  V30 11 C 5.1961 -3.4999 0.0 0
M  V30 12 O 4.3301 1.0 0.0 0
M  V30 13 C 2.598 1.0 0.0 0
M  V30 14 C 1.732 -0.5 0.0 0
M  V30 15 C 6.0621 -2.9999 0.0 0
M  V30 16 C 3.4641 1.5 0.0 0
M  V30 17 C 1.732 1.4999 0.0 0
M  V30 18 C 0.866 0.0 0.0 0
M  V30 19 C 3.4641 2.5 0.0 0
M  V30 20 C 1.732 2.5 0.0 0
M  V30 21 O 0.866 1.0 0.0 0
M  V30 22 C 0.0 -0.5 0.0 0
M  V30 23 C 2.598 3.0 0.0 0
M  V30 END ATOM
M  V30 BEGIN BOND
M  V30 1 2 1 2
M  V30 2 1 2 3
M  V30 3 1 2 4
M  V30 4 2 3 5
M  V30 5 1 3 6
M  V30 6 2 4 7
M  V30 7 1 8 4
M  V30 8 1 5 9
M  V30 9 1 5 10
M  V30 10 2 6 11
M  V30 11 1 7 12
M  V30 12 1 8 13
M  V30 13 1 8 14 CFG=1
M  V30 14 2 10 15
M  V30 15 2 13 16
M  V30 16 1 13 17
M  V30 17 1 14 18
M  V30 18 1 16 19
M  V30 19 2 17 20
M  V30 20 2 18 21
M  V30 21 1 18 22
M  V30 22 2 19 23
M  V30 23 1 7 9
M  V30 24 1 11 15
M  V30 25 1 20 23
M  V30 END BOND
M  V30 BEGIN COLLECTION
M  V30 MDLV30/STERAC1 ATOMS=(1 8)
M  V30 END COLLECTION
M  V30 END CTAB
M  END
>  <Molecule Name>


>  <status>
-

>  <cas>
81-81-2

>  <name>
WARFARIN

>  <ID>
1102

>  <Smiles>
CC(CC(c1ccccc1)C1=C(O)Oc(cccc2)c2C1=O)=O

$$$$

Actelion Java MolfileCreator 2.0

  0  0  0  0  0  0              0 V3000
M  V30 BEGIN CTAB
M  V30 COUNTS 16 17 0 0 0
M  V30 BEGIN ATOM
M  V30 1 O -1.299 1.5 0.0 0
M  V30 2 C -1.299 0.0 0.0 0
M  V30 3 N -2.598 -0.7499 0.0 0
M  V30 4 C 0.0 -0.75 0.0 0 CFG=2
M  V30 5 C -2.598 -2.2499 0.0 0
M  V30 6 C 1.299 -1.5 0.0 0
M  V30 7 C 0.0 -2.25 0.0 0
M  V30 8 C 1.299 0.0 0.0 0
M  V30 9 O -3.8971 -2.9999 0.0 0
M  V30 10 C -1.299 -2.9999 0.0 0
M  V30 11 C 1.299 -3.0 0.0 0
M  V30 12 C 2.598 -0.75 0.0 0
M  V30 13 C 1.299 1.5 0.0 0
M  V30 14 C 2.598 -3.75 0.0 0
M  V30 15 C 3.8971 -1.5 0.0 0
M  V30 16 C 3.8971 -3.0 0.0 0
M  V30 END ATOM
M  V30 BEGIN BOND
M  V30 1 2 1 2
M  V30 2 1 2 3
M  V30 3 1 4 2
M  V30 4 1 3 5
M  V30 5 1 4 6 CFG=3
M  V30 6 1 4 7
M  V30 7 1 4 8
M  V30 8 2 5 9
M  V30 9 1 5 10
M  V30 10 2 6 11
M  V30 11 1 6 12
M  V30 12 1 8 13
M  V30 13 1 11 14
M  V30 14 2 12 15
M  V30 15 2 14 16
M  V30 16 1 7 10
M  V30 17 1 15 16
M  V30 END BOND
M  V30 BEGIN COLLECTION
M  V30 MDLV30/STERAC1 ATOMS=(1 4)
M  V30 END COLLECTION
M  V30 END CTAB
M  END
>  <Molecule Name>


>  <status>
DISCONTINUED

>  <cas>
77-21-4

>  <name>
GLUTETHIMIDE

>  <ID>
1103

>  <Smiles>
CCC(CCC(N1)=O)(c2ccccc2)C1=O

$$$$

Actelion Java MolfileCreator 2.0

  0  0  0  0  0  0              0 V3000
M  V30 BEGIN CTAB
M  V30 COUNTS 21 23 0 0 0
M  V30 BEGIN ATOM
M  V30 1 O 3.4641 -0.5 0.0 0
M  V30 2 C 2.598 0.0 0.0 0 CFG=2
M  V30 3 C 2.598 1.0 0.0 0
M  V30 4 C 2.598 -1.0 0.0 0
M  V30 5 C 1.732 -0.5 0.0 0
M  V30 6 C 3.4641 1.5 0.0 0
M  V30 7 C 1.732 1.4999 0.0 0
M  V30 8 C 1.732 -1.5 0.0 0
M  V30 9 C 3.4641 -1.4999 0.0 0
M  V30 10 C 0.866 0.0 0.0 0
M  V30 11 C 3.4641 2.5 0.0 0
M  V30 12 C 1.732 2.5 0.0 0
M  V30 13 C 1.732 -2.5 0.0 0
M  V30 14 C 3.4641 -2.4999 0.0 0
M  V30 15 N 0.0 -0.5 0.0 0
M  V30 16 C 2.598 3.0 0.0 0
M  V30 17 C 2.598 -2.9999 0.0 0
M  V30 18 C -0.9135 -0.0932 0.0 0
M  V30 19 C -0.1045 -1.4945 0.0 0
M  V30 20 C -1.5826 -0.8364 0.0 0
M  V30 21 C -1.0826 -1.7024 0.0 0
M  V30 END ATOM
M  V30 BEGIN BOND
M  V30 1 1 2 1
M  V30 2 1 2 3
M  V30 3 1 2 4 CFG=1
M  V30 4 1 2 5
M  V30 5 2 3 6
M  V30 6 1 3 7
M  V30 7 1 4 8
M  V30 8 1 4 9
M  V30 9 1 5 10
M  V30 10 1 6 11
M  V30 11 2 7 12
M  V30 12 1 8 13
M  V30 13 1 9 14
M  V30 14 1 10 15
M  V30 15 2 11 16
M  V30 16 1 13 17
M  V30 17 1 15 18
M  V30 18 1 15 19
M  V30 19 1 18 20
M  V30 20 1 19 21
M  V30 21 1 12 16
M  V30 22 1 14 17
M  V30 23 1 20 21
M  V30 END BOND
M  V30 BEGIN COLLECTION
M  V30 MDLV30/STERAC1 ATOMS=(1 2)
M  V30 END COLLECTION
M  V30 END CTAB
M  END
>  <Molecule Name>


>  <status>
DISCONTINUED

>  <cas>
77-37-2

>  <name>
PROCYCLIDINE

>  <ID>
1104

>  <Smiles>
OC(CCN1CCCC1)(C1CCCCC1)c1ccccc1

$$$$

Actelion Java MolfileCreator 2.0

  0  0  0  0  0  0              0 V3000
M  V30 BEGIN CTAB
M  V30 COUNTS 9 8 0 0 0
M  V30 BEGIN ATOM
M  V30 1 Cl 2.598 0.0 0.0 0
M  V30 2 C 1.732 -0.5 0.0 0
M  V30 3 C 0.866 0.0 0.0 0
M  V30 4 C 0.0 -0.5 0.0 0 CFG=2
M  V30 5 O -0.866 0.0 0.0 0
M  V30 6 C -0.866 -0.9999 0.0 0
M  V30 7 C 0.0 -1.5 0.0 0
M  V30 8 C -1.732 -1.4999 0.0 0
M  V30 9 C -0.866 -1.9999 0.0 0
M  V30 END ATOM
M  V30 BEGIN BOND
M  V30 1 1 1 2
M  V30 2 2 2 3
M  V30 3 1 4 3
M  V30 4 1 4 5
M  V30 5 1 4 6 CFG=1
M  V30 6 1 4 7
M  V30 7 3 6 8
M  V30 8 1 7 9
M  V30 END BOND
M  V30 BEGIN COLLECTION
M  V30 MDLV30/STERAC1 ATOMS=(1 4)
M  V30 END COLLECTION
M  V30 END CTAB
M  END
>  <Molecule Name>


>  <status>
DISCONTINUED

>  <cas>
113-18-8

>  <name>
ETHCHLORVYNOL

>  <ID>
1105

>  <Smiles>
CCC(/C=C/Cl)(C#C)O

$$$$

Actelion Java MolfileCreator 2.0

  0  0  0  0  0  0              0 V3000
M  V30 BEGIN CTAB
M  V30 COUNTS 10 10 0 0 0
M  V30 BEGIN ATOM
M  V30 1 N 3.8971 0.0 0.0 0
M  V30 2 C 2.598 -0.75 0.0 0 CFG=2
M  V30 3 C 1.299 0.0 0.0 0
M  V30 4 C 2.598 -2.25 0.0 0
M  V30 5 C 0.0 -0.75 0.0 0
M  V30 6 C -1.299 0.0 0.0 0
M  V30 7 C 0.0 -2.25 0.0 0
M  V30 8 C -2.598 -0.7499 0.0 0
M  V30 9 C -1.299 -2.9999 0.0 0
M  V30 10 C -2.598 -2.2499 0.0 0
M  V30 END ATOM
M  V30 BEGIN BOND
M  V30 1 1 2 1 CFG=1
M  V30 2 1 2 3
M  V30 3 1 2 4
M  V30 4 1 3 5
M  V30 5 2 5 6
M  V30 6 1 5 7
M  V30 7 1 6 8
M  V30 8 2 7 9
M  V30 9 2 8 10
M  V30 10 1 9 10
M  V30 END BOND
M  V30 BEGIN COLLECTION
M  V30 MDLV30/STERAC1 ATOMS=(1 2)
M  V30 END COLLECTION
M  V30 END CTAB
M  END
>  <Molecule Name>


>  <status>
-

>  <cas>
300-62-9

>  <name>
AMPHETAMINE

>  <ID>
1106

>  <Smiles>
CC(Cc1ccccc1)N

$$$$

Actelion Java MolfileCreator 2.0

  0  0  0  0  0  0              0 V3000
M  V30 BEGIN CTAB
M  V30 COUNTS 12 13 0 0 0
M  V30 BEGIN ATOM
M  V30 1 N 0.866 0.0 0.0 0
M  V30 2 C 0.0 -0.5 0.0 0 CFG=2
M  V30 3 C 1.732 -0.5 0.0 0
M  V30 4 C -0.9135 -0.0932 0.0 0
M  V30 5 C -0.1045 -1.4945 0.0 0 CFG=1
M  V30 6 C 0.8386 -1.0446 0.0 0
M  V30 7 C -1.5826 -0.8364 0.0 0 CFG=2
M  V30 8 C -0.6045 0.8577 0.0 0
M  V30 9 C -1.5826 0.6498 0.0 0
M  V30 10 C -1.0826 -1.7024 0.0 0
M  V30 11 C -0.933 -2.5956 0.0 0
M  V30 12 C -1.8465 -2.1889 0.0 0
M  V30 END ATOM
M  V30 BEGIN BOND
M  V30 1 1 2 1 CFG=1
M  V30 2 1 1 3
M  V30 3 1 2 4
M  V30 4 1 5 2
M  V30 5 1 2 6
M  V30 6 1 7 4
M  V30 7 1 4 8
M  V30 8 1 4 9
M  V30 9 1 5 10 CFG=1
M  V30 10 1 5 11
M  V30 11 1 7 12 CFG=3
M  V30 12 1 7 10
M  V30 13 1 11 12
M  V30 END BOND
M  V30 BEGIN COLLECTION
M  V30 MDLV30/STERAC1 ATOMS=(3 2 5 7)
M  V30 END COLLECTION
M  V30 END CTAB
M  END
>  <Molecule Name>


>  <status>
-

>  <cas>
60-40-2

>  <name>
MECAMYLAMINE

>  <ID>
1107

>  <Smiles>
CC(C)([C@@H]1C[C@H]2CC1)[C@@]2(C)NC

$$$$

Actelion Java MolfileCreator 2.0

  0  0  0  0  0  0              0 V3000
M  V30 BEGIN CTAB
M  V30 COUNTS 26 29 0 0 0
M  V30 BEGIN ATOM
M  V30 1 O 2.598 0.0 0.0 0
M  V30 2 C 1.732 -0.5 0.0 0
M  V30 3 O 1.8392 -1.4356 0.0 0
M  V30 4 C 0.866 0.0 0.0 0
M  V30 5 C 2.598 -1.9999 0.0 0 CFG=2
M  V30 6 O 0.866 1.0 0.0 0
M  V30 7 C 0.866 -1.0 0.0 0
M  V30 8 C 0.0 -0.5 0.0 0
M  V30 9 C 3.4641 -1.4999 0.0 0 CFG=2
M  V30 10 C 2.598 -2.9999 0.0 0
M  V30 11 C 0.1279 -1.507 0.0 0
M  V30 12 C 1.5176 -1.6286 0.0 0
M  V30 13 C -0.866 0.0 0.0 0
M  V30 14 C -0.2454 -1.5334 0.0 0
M  V30 15 C 4.294 -2.1248 0.0 0
M  V30 16 C 5.1961 -1.9999 0.0 0
M  V30 17 N 3.4641 -3.4999 0.0 0 CHG=1 CFG=1
M  V30 18 C 0.0 -2.4999 0.0 0
M  V30 19 C 1.732 -2.5 0.0 0
M  V30 20 C -1.732 -0.4999 0.0 0
M  V30 21 C -0.866 -1.9999 0.0 0
M  V30 22 C 4.294 -2.8751 0.0 0
M  V30 23 C 5.1961 -2.9999 0.0 0
M  V30 24 C 3.3431 -4.4926 0.0 0
M  V30 25 C 0.866 -3.0 0.0 0
M  V30 26 C -1.732 -1.4999 0.0 0
M  V30 END ATOM
M  V30 BEGIN BOND
M  V30 1 2 1 2
M  V30 2 1 2 3
M  V30 3 1 2 4
M  V30 4 1 5 3 CFG=3
M  V30 5 1 4 6
M  V30 6 1 4 7
M  V30 7 1 4 8
M  V30 8 1 9 5
M  V30 9 1 5 10
M  V30 10 2 7 11
M  V30 11 1 7 12
M  V30 12 2 8 13
M  V30 13 1 8 14
M  V30 14 1 9 15 CFG=3
M  V30 15 1 9 16
M  V30 16 1 17 10
M  V30 17 1 11 18
M  V30 18 2 12 19
M  V30 19 1 13 20
M  V30 20 2 14 21
M  V30 21 1 15 22
M  V30 22 1 16 23
M  V30 23 1 17 24 CFG=3
M  V30 24 2 18 25
M  V30 25 2 20 26
M  V30 26 1 17 22
M  V30 27 1 17 23
M  V30 28 1 19 25
M  V30 29 1 21 26
M  V30 END BOND
M  V30 BEGIN COLLECTION
M  V30 MDLV30/STEABS ATOMS=(2 9 17)
M  V30 MDLV30/STERAC1 ATOMS=(1 5)
M  V30 END COLLECTION
M  V30 END CTAB
M  END
>  <Molecule Name>


>  <status>
-

>  <cas>
3485-62-9

>  <name>
CLIDINIUM

>  <ID>
1108

>  <Smiles>
C[N@+]1(CC[C@H]2CC1)CC2OC(C(c1ccccc1)(c1ccccc1)O)=O

$$$$

Actelion Java MolfileCreator 2.0

  0  0  0  0  0  0              0 V3000
M  V30 BEGIN CTAB
M  V30 COUNTS 26 28 0 0 0
M  V30 BEGIN ATOM
M  V30 1 Cl 11.2583 0.0 0.0 0
M  V30 2 C 10.3923 -0.5 0.0 0
M  V30 3 C 9.5262 0.0 0.0 0
M  V30 4 C 10.3923 -1.5 0.0 0
M  V30 5 C 8.6602 -0.5 0.0 0
M  V30 6 C 9.5262 -2.0 0.0 0
M  V30 7 C 8.6602 -1.5 0.0 0
M  V30 8 C 7.7942 -2.0 0.0 0 CFG=1
M  V30 9 N 6.9282 -1.5 0.0 0
M  V30 10 C 7.7942 -3.0 0.0 0
M  V30 11 C 6.9282 -0.5 0.0 0
M  V30 12 C 6.0621 -2.0 0.0 0
M  V30 13 C 6.9282 -3.4999 0.0 0
M  V30 14 C 8.6602 -3.5 0.0 0
M  V30 15 C 6.0621 0.0 0.0 0
M  V30 16 C 5.1961 -1.5 0.0 0
M  V30 17 C 6.9282 -4.5 0.0 0
M  V30 18 C 8.6602 -4.5 0.0 0
M  V30 19 N 5.1961 -0.5 0.0 0
M  V30 20 C 7.7942 -5.0 0.0 0
M  V30 21 C 4.3301 0.0 0.0 0
M  V30 22 C 3.4641 -0.5 0.0 0
M  V30 23 O 2.598 0.0 0.0 0
M  V30 24 C 1.732 -0.5 0.0 0
M  V30 25 C 0.866 0.0 0.0 0
M  V30 26 O 0.0 -0.5 0.0 0
M  V30 END ATOM
M  V30 BEGIN BOND
M  V30 1 1 1 2
M  V30 2 2 2 3
M  V30 3 1 2 4
M  V30 4 1 3 5
M  V30 5 2 4 6
M  V30 6 2 5 7
M  V30 7 1 8 7
M  V30 8 1 8 9 CFG=3
M  V30 9 1 8 10
M  V30 10 1 9 11
M  V30 11 1 9 12
M  V30 12 2 10 13
M  V30 13 1 10 14
M  V30 14 1 11 15
M  V30 15 1 12 16
M  V30 16 1 13 17
M  V30 17 2 14 18
M  V30 18 1 15 19
M  V30 19 2 17 20
M  V30 20 1 19 21
M  V30 21 1 21 22
M  V30 22 1 22 23
M  V30 23 1 23 24
M  V30 24 1 24 25
M  V30 25 1 25 26
M  V30 26 1 6 7
M  V30 27 1 16 19
M  V30 28 1 18 20
M  V30 END BOND
M  V30 BEGIN COLLECTION
M  V30 MDLV30/STERAC1 ATOMS=(1 8)
M  V30 END COLLECTION
M  V30 END CTAB
M  END
>  <Molecule Name>


>  <status>
-

>  <cas>
68-88-2

>  <name>
HYDROXYZINE

>  <ID>
1109

>  <Smiles>
OCCOCCN(CC1)CCN1C(c1ccccc1)c(cc1)ccc1Cl

$$$$

Actelion Java MolfileCreator 2.0

  0  0  0  0  0  0              0 V3000
M  V30 BEGIN CTAB
M  V30 COUNTS 19 20 0 0 0
M  V30 BEGIN ATOM
M  V30 1 Br 6.9282 1.4999 0.0 0
M  V30 2 C 6.0621 0.9999 0.0 0
M  V30 3 C 5.1961 1.4999 0.0 0
M  V30 4 C 6.0621 0.0 0.0 0
M  V30 5 C 4.3301 0.9999 0.0 0
M  V30 6 C 5.1961 -0.5 0.0 0
M  V30 7 C 4.3301 0.0 0.0 0
M  V30 8 C 3.4641 -0.5 0.0 0 CFG=1
M  V30 9 C 3.4641 -1.5 0.0 0
M  V30 10 C 2.598 0.0 0.0 0
M  V30 11 N 2.598 -1.9999 0.0 0
M  V30 12 C 4.3301 -2.0 0.0 0
M  V30 13 C 1.732 -0.5 0.0 0
M  V30 14 C 2.598 -2.9999 0.0 0
M  V30 15 C 4.3301 -3.0 0.0 0
M  V30 16 N 0.866 0.0 0.0 0
M  V30 17 C 3.4641 -3.5 0.0 0
M  V30 18 C 0.866 1.0 0.0 0
M  V30 19 C 0.0 -0.5 0.0 0
M  V30 END ATOM
M  V30 BEGIN BOND
M  V30 1 1 1 2
M  V30 2 2 2 3
M  V30 3 1 2 4
M  V30 4 1 3 5
M  V30 5 2 4 6
M  V30 6 2 5 7
M  V30 7 1 8 7
M  V30 8 1 8 9
M  V30 9 1 8 10 CFG=1
M  V30 10 2 9 11
M  V30 11 1 9 12
M  V30 12 1 10 13
M  V30 13 1 11 14
M  V30 14 2 12 15
M  V30 15 1 13 16
M  V30 16 2 14 17
M  V30 17 1 16 18
M  V30 18 1 16 19
M  V30 19 1 6 7
M  V30 20 1 15 17
M  V30 END BOND
M  V30 BEGIN COLLECTION
M  V30 MDLV30/STERAC1 ATOMS=(1 8)
M  V30 END COLLECTION
M  V30 END CTAB
M  END
>  <Molecule Name>


>  <status>
-

>  <cas>
86-22-6

>  <name>
BROMPHENIRAMINE

>  <ID>
1110

>  <Smiles>
CN(C)CCC(c(cc1)ccc1Br)c1ncccc1

$$$$

Actelion Java MolfileCreator 2.0

  0  0  0  0  0  0              0 V3000
M  V30 BEGIN CTAB
M  V30 COUNTS 15 16 0 0 0
M  V30 BEGIN ATOM
M  V30 1 O 4.2802 1.3273 0.0 0
M  V30 2 C 3.9683 -0.1398 0.0 0
M  V30 3 N 2.598 -0.75 0.0 0
M  V30 4 N 4.972 -1.2546 0.0 0
M  V30 5 C 2.7548 -2.2417 0.0 0
M  V30 6 C 1.299 0.0 0.0 0
M  V30 7 C 4.222 -2.5536 0.0 0 CFG=1
M  V30 8 O 1.6401 -3.2454 0.0 0
M  V30 9 C 0.0 -0.75 0.0 0
M  V30 10 C 4.8321 -3.9239 0.0 0
M  V30 11 C 3.9505 -5.1374 0.0 0
M  V30 12 C 6.3239 -4.0807 0.0 0
M  V30 13 C 4.5606 -6.5078 0.0 0
M  V30 14 C 6.934 -5.451 0.0 0
M  V30 15 C 6.0524 -6.6646 0.0 0
M  V30 END ATOM
M  V30 BEGIN BOND
M  V30 1 2 1 2
M  V30 2 1 2 3
M  V30 3 1 2 4
M  V30 4 1 3 5
M  V30 5 1 3 6
M  V30 6 1 7 4
M  V30 7 2 5 8
M  V30 8 1 6 9
M  V30 9 1 7 10 CFG=3
M  V30 10 2 10 11
M  V30 11 1 10 12
M  V30 12 1 11 13
M  V30 13 2 12 14
M  V30 14 2 13 15
M  V30 15 1 5 7
M  V30 16 1 14 15
M  V30 END BOND
M  V30 BEGIN COLLECTION
M  V30 MDLV30/STERAC1 ATOMS=(1 7)
M  V30 END COLLECTION
M  V30 END CTAB
M  END
>  <Molecule Name>


>  <status>
DISCONTINUED

>  <cas>
86-35-1

>  <name>
ETHOTOIN

>  <ID>
1111

>  <Smiles>
CCN(C(C(c1ccccc1)N1)=O)C1=O

$$$$

Actelion Java MolfileCreator 2.0

  0  0  0  0  0  0              0 V3000
M  V30 BEGIN CTAB
M  V30 COUNTS 31 34 0 0 0
M  V30 BEGIN ATOM
M  V30 1 Cl 6.4951 -3.0 0.0 0
M  V30 2 C 5.1961 -2.25 0.0 0
M  V30 3 C 5.1961 -0.75 0.0 0
M  V30 4 C 3.8971 -2.9999 0.0 0
M  V30 5 C 3.8971 0.0 0.0 0
M  V30 6 C 2.598 -2.25 0.0 0
M  V30 7 C 2.598 -0.75 0.0 0
M  V30 8 C 1.299 0.0 0.0 0 CFG=1
M  V30 9 N 1.299 1.5 0.0 0
M  V30 10 C 0.0 -0.75 0.0 0
M  V30 11 C 2.598 2.25 0.0 0
M  V30 12 C 0.0 2.25 0.0 0
M  V30 13 C -1.299 0.0 0.0 0
M  V30 14 C 0.0 -2.25 0.0 0
M  V30 15 C 2.598 3.75 0.0 0
M  V30 16 C 0.0 3.75 0.0 0
M  V30 17 C -2.598 -0.7499 0.0 0
M  V30 18 C -1.299 -2.9999 0.0 0
M  V30 19 N 1.299 4.5 0.0 0
M  V30 20 C -2.598 -2.2499 0.0 0
M  V30 21 C 1.299 6.0 0.0 0
M  V30 22 C 0.0 6.75 0.0 0
M  V30 23 C 0.0 8.25 0.0 0
M  V30 24 C -1.299 6.0 0.0 0
M  V30 25 C -1.299 9.0 0.0 0
M  V30 26 C -2.598 6.75 0.0 0
M  V30 27 C -2.598 8.25 0.0 0
M  V30 28 C -3.8971 9.0 0.0 0
M  V30 29 C -4.6471 7.7009 0.0 0
M  V30 30 C -5.1961 9.75 0.0 0
M  V30 31 C -3.1471 10.299 0.0 0
M  V30 END ATOM
M  V30 BEGIN BOND
M  V30 1 1 1 2
M  V30 2 2 2 3
M  V30 3 1 2 4
M  V30 4 1 3 5
M  V30 5 2 4 6
M  V30 6 2 5 7
M  V30 7 1 8 7
M  V30 8 1 8 9 CFG=3
M  V30 9 1 8 10
M  V30 10 1 9 11
M  V30 11 1 9 12
M  V30 12 2 10 13
M  V30 13 1 10 14
M  V30 14 1 11 15
M  V30 15 1 12 16
M  V30 16 1 13 17
M  V30 17 2 14 18
M  V30 18 1 15 19
M  V30 19 2 17 20
M  V30 20 1 19 21
M  V30 21 1 21 22
M  V30 22 2 22 23
M  V30 23 1 22 24
M  V30 24 1 23 25
M  V30 25 2 24 26
M  V30 26 2 25 27
M  V30 27 1 27 28
M  V30 28 1 28 29
M  V30 29 1 28 30
M  V30 30 1 28 31
M  V30 31 1 6 7
M  V30 32 1 16 19
M  V30 33 1 18 20
M  V30 34 1 26 27
M  V30 END BOND
M  V30 BEGIN COLLECTION
M  V30 MDLV30/STERAC1 ATOMS=(1 8)
M  V30 END COLLECTION
M  V30 END CTAB
M  END
>  <Molecule Name>


>  <status>
DISCONTINUED

>  <cas>
82-95-1

>  <name>
BUCLIZINE

>  <ID>
1112

>  <Smiles>
CC(C)(C)c1ccc(CN(CC2)CCN2C(c2ccccc2)c(cc2)ccc2Cl)cc1

$$$$

Actelion Java MolfileCreator 2.0

  0  0  0  0  0  0              0 V3000
M  V30 BEGIN CTAB
M  V30 COUNTS 17 17 0 0 0
M  V30 BEGIN ATOM
M  V30 1 O 6.0621 0.0 0.0 0
M  V30 2 C 5.1961 -0.5 0.0 0
M  V30 3 O 4.3301 0.0 0.0 0
M  V30 4 N 5.1961 -1.4999 0.0 0
M  V30 5 C 3.4641 -0.5 0.0 0
M  V30 6 C 2.598 0.0 0.0 0 CFG=2
M  V30 7 O 2.598 1.0 0.0 0
M  V30 8 C 1.732 -0.5 0.0 0
M  V30 9 O 0.866 0.0 0.0 0
M  V30 10 C 0.0 -0.5 0.0 0
M  V30 11 C -0.866 0.0 0.0 0
M  V30 12 C 0.0 -1.4999 0.0 0
M  V30 13 O -0.866 1.0 0.0 0
M  V30 14 C -1.732 -0.4999 0.0 0
M  V30 15 C -0.866 -1.9999 0.0 0
M  V30 16 C -1.732 1.5 0.0 0
M  V30 17 C -1.732 -1.4999 0.0 0
M  V30 END ATOM
M  V30 BEGIN BOND
M  V30 1 2 1 2
M  V30 2 1 2 3
M  V30 3 1 2 4
M  V30 4 1 3 5
M  V30 5 1 6 5
M  V30 6 1 6 7 CFG=1
M  V30 7 1 6 8
M  V30 8 1 8 9
M  V30 9 1 9 10
M  V30 10 2 10 11
M  V30 11 1 10 12
M  V30 12 1 11 13
M  V30 13 1 11 14
M  V30 14 2 12 15
M  V30 15 1 13 16
M  V30 16 2 14 17
M  V30 17 1 15 17
M  V30 END BOND
M  V30 BEGIN COLLECTION
M  V30 MDLV30/STERAC1 ATOMS=(1 6)
M  V30 END COLLECTION
M  V30 END CTAB
M  END
>  <Molecule Name>


>  <status>
-

>  <cas>
532-03-6

>  <name>
METHOCARBAMOL

>  <ID>
1113

>  <Smiles>
COc(cccc1)c1OCC(COC(N)=O)O

$$$$

Actelion Java MolfileCreator 2.0

  0  0  0  0  0  0              0 V3000
M  V30 BEGIN CTAB
M  V30 COUNTS 21 23 0 0 0
M  V30 BEGIN ATOM
M  V30 1 O 3.4641 -1.4999 0.0 0
M  V30 2 C 3.4641 -0.4999 0.0 0
M  V30 3 C 4.3301 0.0 0.0 0
M  V30 4 C 2.598 0.0 0.0 0
M  V30 5 C 4.3301 1.0 0.0 0
M  V30 6 C 5.1961 -0.4999 0.0 0
M  V30 7 C 2.598 1.0 0.0 0
M  V30 8 C 1.732 -0.5 0.0 0 CFG=2
M  V30 9 O 3.4641 1.5 0.0 0
M  V30 10 C 5.1961 1.5 0.0 0
M  V30 11 C 6.0621 0.0 0.0 0
M  V30 12 O 1.732 1.4999 0.0 0
M  V30 13 C 1.732 -1.5 0.0 0
M  V30 14 C 0.866 0.0 0.0 0
M  V30 15 C 6.0621 0.9999 0.0 0
M  V30 16 C 0.866 -1.9999 0.0 0
M  V30 17 C 2.598 -2.0 0.0 0
M  V30 18 C 0.0 -0.5 0.0 0
M  V30 19 C 0.866 -2.9999 0.0 0
M  V30 20 C 2.598 -3.0 0.0 0
M  V30 21 C 1.732 -3.5 0.0 0
M  V30 END ATOM
M  V30 BEGIN BOND
M  V30 1 2 1 2
M  V30 2 1 2 3
M  V30 3 1 2 4
M  V30 4 2 3 5
M  V30 5 1 3 6
M  V30 6 2 4 7
M  V30 7 1 8 4
M  V30 8 1 5 9
M  V30 9 1 5 10
M  V30 10 2 6 11
M  V30 11 1 7 12
M  V30 12 1 8 13
M  V30 13 1 8 14 CFG=3
M  V30 14 2 10 15
M  V30 15 2 13 16
M  V30 16 1 13 17
M  V30 17 1 14 18
M  V30 18 1 16 19
M  V30 19 2 17 20
M  V30 20 2 19 21
M  V30 21 1 7 9
M  V30 22 1 11 15
M  V30 23 1 20 21
M  V30 END BOND
M  V30 BEGIN COLLECTION
M  V30 MDLV30/STERAC1 ATOMS=(1 8)
M  V30 END COLLECTION
M  V30 END CTAB
M  END
>  <Molecule Name>


>  <status>
DISCONTINUED

>  <cas>
435-97-2

>  <name>
PHENPROCOUMON

>  <ID>
1114

>  <Smiles>
CCC(c1ccccc1)C1=C(O)Oc(cccc2)c2C1=O

$$$$

Actelion Java MolfileCreator 2.0

  0  0  0  0  0  0              0 V3000
M  V30 BEGIN CTAB
M  V30 COUNTS 21 23 0 0 0
M  V30 BEGIN ATOM
M  V30 1 S 6.0621 0.9999 0.0 0
M  V30 2 C 5.1961 1.4999 0.0 0
M  V30 3 C 6.0621 0.0 0.0 0
M  V30 4 C 4.3301 0.9999 0.0 0
M  V30 5 C 5.1961 2.4999 0.0 0
M  V30 6 C 5.1961 -0.5 0.0 0
M  V30 7 C 6.9282 -0.4999 0.0 0
M  V30 8 N 4.3301 0.0 0.0 0
M  V30 9 C 3.4641 1.5 0.0 0
M  V30 10 C 4.3301 2.9999 0.0 0
M  V30 11 C 5.1961 -1.5 0.0 0
M  V30 12 C 6.9282 -1.4999 0.0 0
M  V30 13 C 3.4641 -0.5 0.0 0
M  V30 14 C 3.4641 2.5 0.0 0
M  V30 15 C 6.0621 -1.9999 0.0 0
M  V30 16 C 2.598 0.0 0.0 0 CFG=2
M  V30 17 C 1.732 -0.5 0.0 0
M  V30 18 C 2.598 1.0 0.0 0
M  V30 19 N 0.866 0.0 0.0 0
M  V30 20 C 0.866 1.0 0.0 0
M  V30 21 C 0.0 -0.5 0.0 0
M  V30 END ATOM
M  V30 BEGIN BOND
M  V30 1 1 1 2
M  V30 2 1 1 3
M  V30 3 2 2 4
M  V30 4 1 2 5
M  V30 5 2 3 6
M  V30 6 1 3 7
M  V30 7 1 4 8
M  V30 8 1 4 9
M  V30 9 2 5 10
M  V30 10 1 6 11
M  V30 11 2 7 12
M  V30 12 1 8 13
M  V30 13 2 9 14
M  V30 14 2 11 15
M  V30 15 1 16 13
M  V30 16 1 16 17
M  V30 17 1 16 18 CFG=3
M  V30 18 1 17 19
M  V30 19 1 19 20
M  V30 20 1 19 21
M  V30 21 1 6 8
M  V30 22 1 10 14
M  V30 23 1 12 15
M  V30 END BOND
M  V30 BEGIN COLLECTION
M  V30 MDLV30/STERAC1 ATOMS=(1 16)
M  V30 END COLLECTION
M  V30 END CTAB
M  END
>  <Molecule Name>


>  <status>
DISCONTINUED

>  <cas>
84-96-8

>  <name>
TRIMEPRAZINE

>  <ID>
1115

>  <Smiles>
CC(CN(C)C)CN1c(cccc2)c2Sc2c1cccc2

$$$$

Actelion Java MolfileCreator 2.0

  0  0  0  0  0  0              0 V3000
M  V30 BEGIN CTAB
M  V30 COUNTS 35 38 0 0 0
M  V30 BEGIN ATOM
M  V30 1 Cl 4.3301 -5.0 0.0 0
M  V30 2 C 3.4641 -4.5 0.0 0
M  V30 3 C 3.4641 -3.5 0.0 0
M  V30 4 C 2.598 -5.0 0.0 0
M  V30 5 C 2.598 -3.0 0.0 0
M  V30 6 C 1.732 -4.5 0.0 0
M  V30 7 C 1.732 -3.5 0.0 0
M  V30 8 C 2.598 -2.0 0.0 0 CFG=1
M  V30 9 C 0.7809 -4.809 0.0 0
M  V30 10 C 0.7809 -3.1909 0.0 0
M  V30 11 O 1.732 -1.5 0.0 0
M  V30 12 C 3.4641 -1.5 0.0 0
M  V30 13 C 0.1932 -3.9999 0.0 0
M  V30 14 C 0.4719 -5.76 0.0 0
M  V30 15 C 0.3742 -2.2774 0.0 0
M  V30 16 N 3.4641 -0.5 0.0 0
M  V30 17 C -0.8013 -3.8954 0.0 0
M  V30 18 C 1.1411 -6.5032 0.0 0
M  V30 19 C -0.6202 -2.1729 0.0 0
M  V30 20 C 4.3301 0.0 0.0 0
M  V30 21 C 2.598 0.0 0.0 0
M  V30 22 C -1.208 -2.9819 0.0 0
M  V30 23 C 0.832 -7.4542 0.0 0
M  V30 24 C 2.1192 -6.2953 0.0 0
M  V30 25 C 5.1961 -0.5 0.0 0
M  V30 26 C 1.732 -0.5 0.0 0
M  V30 27 Cl -2.2025 -2.8773 0.0 0
M  V30 28 C 1.5012 -8.1974 0.0 0
M  V30 29 C 2.7883 -7.0384 0.0 0
M  V30 30 C 6.0621 0.0 0.0 0
M  V30 31 C 0.866 0.0 0.0 0
M  V30 32 C 2.4793 -7.9895 0.0 0
M  V30 33 C 6.9282 -0.5 0.0 0
M  V30 34 C 0.0 -0.5 0.0 0
M  V30 35 Cl 3.1484 -8.7326 0.0 0
M  V30 END ATOM
M  V30 BEGIN BOND
M  V30 1 1 1 2
M  V30 2 2 2 3
M  V30 3 1 2 4
M  V30 4 1 3 5
M  V30 5 2 4 6
M  V30 6 2 5 7
M  V30 7 1 8 5
M  V30 8 1 6 9
M  V30 9 1 7 10
M  V30 10 1 8 11 CFG=1
M  V30 11 1 8 12
M  V30 12 1 9 13
M  V30 13 2 9 14
M  V30 14 1 10 15
M  V30 15 1 12 16
M  V30 16 1 13 17
M  V30 17 1 14 18
M  V30 18 2 15 19
M  V30 19 1 16 20
M  V30 20 1 16 21
M  V30 21 2 17 22
M  V30 22 2 18 23
M  V30 23 1 18 24
M  V30 24 1 20 25
M  V30 25 1 21 26
M  V30 26 1 22 27
M  V30 27 1 23 28
M  V30 28 2 24 29
M  V30 29 1 25 30
M  V30 30 1 26 31
M  V30 31 2 28 32
M  V30 32 1 30 33
M  V30 33 1 31 34
M  V30 34 1 32 35
M  V30 35 1 6 7
M  V30 36 2 10 13
M  V30 37 1 19 22
M  V30 38 1 29 32
M  V30 END BOND
M  V30 BEGIN COLLECTION
M  V30 MDLV30/STERAC1 ATOMS=(1 8)
M  V30 END COLLECTION
M  V30 END CTAB
M  END
>  <Molecule Name>


>  <status>
-

>  <cas>
82186-77-4

>  <name>
LUMEFANTRINE

>  <ID>
1116

>  <Smiles>
CCCCN(CCCC)CC(c1c(-c(ccc(Cl)c2)c2/C2=C/c(cc3)ccc3Cl)c2cc(Cl)c1)O

$$$$

Actelion Java MolfileCreator 2.0

  0  0  0  0  0  0              0 V3000
M  V30 BEGIN CTAB
M  V30 COUNTS 19 19 0 0 0
M  V30 BEGIN ATOM
M  V30 1 O -3.9262 -3.0224 0.0 0
M  V30 2 C -2.6174 -2.2668 0.0 0
M  V30 3 N -1.3087 -3.0224 0.0 0
M  V30 4 N -2.6174 -0.7556 0.0 0
M  V30 5 C 0.0 -2.2668 0.0 0
M  V30 6 C -1.3087 -4.5336 0.0 0
M  V30 7 C -1.3087 0.0 0.0 0
M  V30 8 O 1.1361 -3.0991 0.0 0
M  V30 9 C 0.0 -0.7556 0.0 0 CFG=2
M  V30 10 O -1.3087 1.5112 0.0 0
M  V30 11 C 1.3087 -1.5112 0.0 0 CFG=2
M  V30 12 C 1.3087 0.0 0.0 0
M  V30 13 C 2.6174 -0.7556 0.0 0
M  V30 14 C 1.6539 -2.8689 0.0 0
M  V30 15 C 1.3087 1.5112 0.0 0
M  V30 16 C 3.9262 0.0 0.0 0
M  V30 17 C 2.6174 2.2668 0.0 0
M  V30 18 C 5.2349 0.7556 0.0 0
M  V30 19 C 6.5437 0.0 0.0 0
M  V30 END ATOM
M  V30 BEGIN BOND
M  V30 1 2 1 2
M  V30 2 1 2 3
M  V30 3 1 2 4
M  V30 4 1 3 5
M  V30 5 1 3 6
M  V30 6 1 4 7
M  V30 7 2 5 8
M  V30 8 1 9 5
M  V30 9 2 7 10
M  V30 10 1 9 11 CFG=3
M  V30 11 1 9 12
M  V30 12 1 11 13
M  V30 13 1 11 14 CFG=3
M  V30 14 1 12 15
M  V30 15 3 13 16
M  V30 16 2 15 17
M  V30 17 1 16 18
M  V30 18 1 18 19
M  V30 19 1 7 9
M  V30 END BOND
M  V30 BEGIN COLLECTION
M  V30 MDLV30/STERAC1 ATOMS=(2 9 11)
M  V30 END COLLECTION
M  V30 END CTAB
M  END
>  <Molecule Name>


>  <status>
-

>  <cas>
151-83-7

>  <name>
METHOHEXITAL

>  <ID>
1117

>  <Smiles>
CCC#C[C@H](C)[C@@](CC=C)(C(NC(N1C)=O)=O)C1=O

$$$$

Actelion Java MolfileCreator 2.0

  0  0  0  0  0  0              0 V3000
M  V30 BEGIN CTAB
M  V30 COUNTS 25 27 0 0 0
M  V30 BEGIN ATOM
M  V30 1 O 3.5568 1.6451 0.0 0
M  V30 2 C 3.8978 0.0 0.0 0
M  V30 3 O 2.5985 -0.7501 0.0 0
M  V30 4 C 5.197 -0.7501 0.0 0 CFG=2
M  V30 5 C 1.2992 0.0 0.0 0
M  V30 6 O 6.4963 0.0 0.0 0
M  V30 7 C 5.197 -2.2504 0.0 0
M  V30 8 C 5.197 0.7501 0.0 0
M  V30 9 C 0.0 -0.7501 0.0 0
M  V30 10 C 3.8978 -3.0005 0.0 0
M  V30 11 C 6.4963 -3.0005 0.0 0
M  V30 12 C 6.4963 1.5002 0.0 0
M  V30 13 C 4.116 1.5454 0.0 0
M  V30 14 N 0.0 -2.2504 0.0 0
M  V30 15 N -1.2992 0.0 0.0 0
M  V30 16 C 3.8978 -4.5008 0.0 0
M  V30 17 C 6.4963 -4.5008 0.0 0
M  V30 18 C 6.4963 3.0005 0.0 0
M  V30 19 C 3.8978 3.0005 0.0 0
M  V30 20 C -1.2992 -3.0005 0.0 0
M  V30 21 C -2.5985 -0.7501 0.0 0
M  V30 22 C -1.2992 1.5002 0.0 0
M  V30 23 C 5.197 -5.2509 0.0 0
M  V30 24 C 5.197 3.7506 0.0 0
M  V30 25 C -2.5985 -2.2504 0.0 0
M  V30 END ATOM
M  V30 BEGIN BOND
M  V30 1 2 1 2
M  V30 2 1 2 3
M  V30 3 1 4 2
M  V30 4 1 3 5
M  V30 5 1 4 6
M  V30 6 1 4 7
M  V30 7 1 4 8 CFG=1
M  V30 8 1 5 9
M  V30 9 2 7 10
M  V30 10 1 7 11
M  V30 11 1 8 12
M  V30 12 1 8 13
M  V30 13 2 9 14
M  V30 14 1 9 15
M  V30 15 1 10 16
M  V30 16 2 11 17
M  V30 17 1 12 18
M  V30 18 1 13 19
M  V30 19 1 14 20
M  V30 20 1 15 21
M  V30 21 1 15 22
M  V30 22 2 16 23
M  V30 23 1 18 24
M  V30 24 1 20 25
M  V30 25 1 17 23
M  V30 26 1 19 24
M  V30 27 1 21 25
M  V30 END BOND
M  V30 BEGIN COLLECTION
M  V30 MDLV30/STERAC1 ATOMS=(1 4)
M  V30 END COLLECTION
M  V30 END CTAB
M  END
>  <Molecule Name>


>  <status>
DISCONTINUED

>  <cas>
125-53-1

>  <name>
OXYPHENCYCLIMINE

>  <ID>
1118

>  <Smiles>
CN1C(COC(C(C2CCCCC2)(c2ccccc2)O)=O)=NCCC1

$$$$

Actelion Java MolfileCreator 2.0

  0  0  0  0  0  0              0 V3000
M  V30 BEGIN CTAB
M  V30 COUNTS 15 15 0 0 0
M  V30 BEGIN ATOM
M  V30 1 O 6.4951 0.0 0.0 0
M  V30 2 C 5.1961 -0.75 0.0 0
M  V30 3 C 5.1961 -2.25 0.0 0
M  V30 4 C 3.8971 0.0 0.0 0 CFG=1
M  V30 5 C 3.8971 -2.9999 0.0 0
M  V30 6 C 6.4951 -3.0 0.0 0
M  V30 7 N 2.598 -0.75 0.0 0
M  V30 8 C 3.8971 1.5 0.0 0
M  V30 9 C 3.8971 -4.5 0.0 0
M  V30 10 C 6.4951 -4.5 0.0 0
M  V30 11 C 2.598 -2.25 0.0 0
M  V30 12 C 1.299 0.0 0.0 0
M  V30 13 C 5.1961 -5.25 0.0 0
M  V30 14 C 1.299 -3.0 0.0 0
M  V30 15 C 0.0 -0.75 0.0 0
M  V30 END ATOM
M  V30 BEGIN BOND
M  V30 1 2 1 2
M  V30 2 1 2 3
M  V30 3 1 4 2
M  V30 4 2 3 5
M  V30 5 1 3 6
M  V30 6 1 4 7 CFG=1
M  V30 7 1 4 8
M  V30 8 1 5 9
M  V30 9 2 6 10
M  V30 10 1 7 11
M  V30 11 1 7 12
M  V30 12 2 9 13
M  V30 13 1 11 14
M  V30 14 1 12 15
M  V30 15 1 10 13
M  V30 END BOND
M  V30 BEGIN COLLECTION
M  V30 MDLV30/STERAC1 ATOMS=(1 4)
M  V30 END COLLECTION
M  V30 END CTAB
M  END
>  <Molecule Name>


>  <status>
-

>  <cas>
90-84-6

>  <name>
DIETHYLPROPION

>  <ID>
1119

>  <Smiles>
CCN(CC)C(C)C(c1ccccc1)=O

$$$$

Actelion Java MolfileCreator 2.0

  0  0  0  0  0  0              0 V3000
M  V30 BEGIN CTAB
M  V30 COUNTS 25 28 0 0 0
M  V30 BEGIN ATOM
M  V30 1 S 4.3301 1.0 0.0 0
M  V30 2 C 3.4641 1.5 0.0 0
M  V30 3 C 4.3301 0.0 0.0 0
M  V30 4 C 2.598 0.9999 0.0 0
M  V30 5 C 3.4641 2.4999 0.0 0
M  V30 6 C 3.4641 -0.4999 0.0 0
M  V30 7 C 5.1961 -0.4999 0.0 0
M  V30 8 N 2.598 0.0 0.0 0
M  V30 9 C 1.732 1.4999 0.0 0
M  V30 10 C 2.598 2.9999 0.0 0
M  V30 11 C 3.4641 -1.4999 0.0 0
M  V30 12 C 5.1961 -1.4999 0.0 0
M  V30 13 C 1.732 -0.5 0.0 0
M  V30 14 C 1.732 2.4999 0.0 0
M  V30 15 C 4.3301 -1.9999 0.0 0
M  V30 16 C 0.866 0.0 0.0 0
M  V30 17 S 0.866 2.9999 0.0 0
M  V30 18 C 0.0 -0.5 0.0 0 CFG=2
M  V30 19 C 0.0 2.4999 0.0 0
M  V30 20 N -0.866 0.0 0.0 0
M  V30 21 C 0.0 -1.4999 0.0 0
M  V30 22 C -1.732 -0.4999 0.0 0
M  V30 23 C -0.866 1.0 0.0 0
M  V30 24 C -0.866 -1.9999 0.0 0
M  V30 25 C -1.732 -1.4999 0.0 0
M  V30 END ATOM
M  V30 BEGIN BOND
M  V30 1 1 1 2
M  V30 2 1 1 3
M  V30 3 2 2 4
M  V30 4 1 2 5
M  V30 5 2 3 6
M  V30 6 1 3 7
M  V30 7 1 4 8
M  V30 8 1 4 9
M  V30 9 2 5 10
M  V30 10 1 6 11
M  V30 11 2 7 12
M  V30 12 1 8 13
M  V30 13 2 9 14
M  V30 14 2 11 15
M  V30 15 1 13 16
M  V30 16 1 14 17
M  V30 17 1 18 16 CFG=1
M  V30 18 1 17 19
M  V30 19 1 18 20
M  V30 20 1 18 21
M  V30 21 1 20 22
M  V30 22 1 20 23
M  V30 23 1 21 24
M  V30 24 1 22 25
M  V30 25 1 6 8
M  V30 26 1 10 14
M  V30 27 1 12 15
M  V30 28 1 24 25
M  V30 END BOND
M  V30 BEGIN COLLECTION
M  V30 MDLV30/STERAC1 ATOMS=(1 18)
M  V30 END COLLECTION
M  V30 END CTAB
M  END
>  <Molecule Name>


>  <status>
-

>  <cas>
50-52-2

>  <name>
THIORIDAZINE

>  <ID>
1120

>  <Smiles>
CN1C(CCN2c(cc(cc3)SC)c3Sc3c2cccc3)CCCC1

$$$$

Actelion Java MolfileCreator 2.0

  0  0  0  0  0  0              0 V3000
M  V30 BEGIN CTAB
M  V30 COUNTS 23 26 0 0 0
M  V30 BEGIN ATOM
M  V30 1 O 3.4641 -0.5 0.0 0
M  V30 2 C 2.598 0.0 0.0 0 CFG=2
M  V30 3 C 2.598 1.0 0.0 0
M  V30 4 C 2.598 -1.0 0.0 0 CFG=2
M  V30 5 C 1.732 -0.5 0.0 0
M  V30 6 C 3.4641 1.5 0.0 0
M  V30 7 C 1.732 1.4999 0.0 0
M  V30 8 C 1.789 -1.5877 0.0 0 CFG=2
M  V30 9 C 3.407 -1.5877 0.0 0
M  V30 10 C 0.866 0.0 0.0 0
M  V30 11 C 3.4641 2.5 0.0 0
M  V30 12 C 1.732 2.5 0.0 0
M  V30 13 C 1.2497 -2.8558 0.0 0
M  V30 14 C 2.098 -2.5388 0.0 0
M  V30 15 C 3.098 -2.5388 0.0 0 CFG=2
M  V30 16 N 0.0 -0.5 0.0 0
M  V30 17 C 2.598 3.0 0.0 0
M  V30 18 C 2.0587 -3.4436 0.0 0
M  V30 19 C -0.866 0.0 0.0 0
M  V30 20 C 0.0 -1.4999 0.0 0
M  V30 21 C -1.732 -0.4999 0.0 0
M  V30 22 C -0.866 -1.9999 0.0 0
M  V30 23 C -1.732 -1.4999 0.0 0
M  V30 END ATOM
M  V30 BEGIN BOND
M  V30 1 1 2 1
M  V30 2 1 2 3
M  V30 3 1 2 4 CFG=1
M  V30 4 1 2 5
M  V30 5 2 3 6
M  V30 6 1 3 7
M  V30 7 1 8 4
M  V30 8 1 4 9 CFG=1
M  V30 9 1 5 10
M  V30 10 1 6 11
M  V30 11 2 7 12
M  V30 12 1 8 13 CFG=1
M  V30 13 1 8 14
M  V30 14 1 15 9 CFG=1
M  V30 15 1 10 16
M  V30 16 2 11 17
M  V30 17 2 13 18
M  V30 18 1 16 19
M  V30 19 1 16 20
M  V30 20 1 19 21
M  V30 21 1 20 22
M  V30 22 1 21 23
M  V30 23 1 12 17
M  V30 24 1 14 15
M  V30 25 1 15 18
M  V30 26 1 22 23
M  V30 END BOND
M  V30 BEGIN COLLECTION
M  V30 MDLV30/STERAC1 ATOMS=(4 2 4 8 15)
M  V30 END COLLECTION
M  V30 END CTAB
M  END
>  <Molecule Name>


>  <status>
DISCONTINUED

>  <cas>
514-65-8

>  <name>
BIPERIDEN

>  <ID>
1121

>  <Smiles>
O[C@@](CCN1CCCCC1)([C@@H](C1)[C@@H]2C=C[C@H]1C2)c1ccccc1

$$$$

Actelion Java MolfileCreator 2.0

  0  0  0  0  0  0              0 V3000
M  V30 BEGIN CTAB
M  V30 COUNTS 21 22 0 0 0
M  V30 BEGIN ATOM
M  V30 1 O 2.598 1.0 0.0 0
M  V30 2 C 2.598 0.0 0.0 0
M  V30 3 N 3.4641 -0.5 0.0 0
M  V30 4 C 1.732 -0.5 0.0 0 CFG=1
M  V30 5 C 4.3301 0.0 0.0 0
M  V30 6 C 3.4641 -1.5 0.0 0
M  V30 7 C 1.732 -1.5 0.0 0
M  V30 8 C 0.866 0.0 0.0 0
M  V30 9 C 5.1961 -0.5 0.0 0
M  V30 10 C 4.3301 -2.0 0.0 0
M  V30 11 C 0.866 -1.9999 0.0 0
M  V30 12 C 2.598 -2.0 0.0 0
M  V30 13 O 0.0 -0.5 0.0 0
M  V30 14 C 5.1961 -1.5 0.0 0
M  V30 15 C 6.0621 0.0 0.0 0
M  V30 16 C 0.866 -2.9999 0.0 0
M  V30 17 C 2.598 -3.0 0.0 0
M  V30 18 C 6.0621 -2.0 0.0 0
M  V30 19 C 6.9282 -0.5 0.0 0
M  V30 20 C 1.732 -3.5 0.0 0
M  V30 21 N 6.9282 -1.5 0.0 0
M  V30 END ATOM
M  V30 BEGIN BOND
M  V30 1 2 1 2
M  V30 2 1 2 3
M  V30 3 1 4 2
M  V30 4 1 3 5
M  V30 5 1 3 6
M  V30 6 1 4 7
M  V30 7 1 4 8 CFG=1
M  V30 8 1 5 9
M  V30 9 1 6 10
M  V30 10 2 7 11
M  V30 11 1 7 12
M  V30 12 1 8 13
M  V30 13 2 9 14
M  V30 14 1 9 15
M  V30 15 1 11 16
M  V30 16 2 12 17
M  V30 17 1 14 18
M  V30 18 2 15 19
M  V30 19 2 16 20
M  V30 20 2 18 21
M  V30 21 1 17 20
M  V30 22 1 19 21
M  V30 END BOND
M  V30 BEGIN COLLECTION
M  V30 MDLV30/STERAC1 ATOMS=(1 4)
M  V30 END COLLECTION
M  V30 END CTAB
M  END
>  <Molecule Name>


>  <status>
-

>  <cas>
1508-75-4

>  <name>
TROPICAMIDE

>  <ID>
1122

>  <Smiles>
CCN(Cc1ccncc1)C(C(CO)c1ccccc1)=O

$$$$

Actelion Java MolfileCreator 2.0

  0  0  0  0  0  0              0 V3000
M  V30 BEGIN CTAB
M  V30 COUNTS 18 19 0 0 0
M  V30 BEGIN ATOM
M  V30 1 O 2.598 -2.25 0.0 0
M  V30 2 C 2.598 -0.75 0.0 0
M  V30 3 N 1.299 0.0 0.0 0
M  V30 4 C 3.8971 0.0 0.0 0 CFG=1
M  V30 5 C 0.0 -0.75 0.0 0
M  V30 6 N 5.1961 -0.75 0.0 0
M  V30 7 C 3.8971 1.4999 0.0 0
M  V30 8 C -1.299 0.0 0.0 0
M  V30 9 C 0.0 -2.25 0.0 0
M  V30 10 C 6.4951 0.0 0.0 0
M  V30 11 C 5.1961 -2.25 0.0 0
M  V30 12 C 5.1961 2.2499 0.0 0
M  V30 13 C -2.598 -0.7499 0.0 0
M  V30 14 C -1.299 1.5 0.0 0
M  V30 15 C -1.299 -2.9999 0.0 0
M  V30 16 C 1.299 -3.0 0.0 0
M  V30 17 C 6.4951 1.4999 0.0 0
M  V30 18 C -2.598 -2.2499 0.0 0
M  V30 END ATOM
M  V30 BEGIN BOND
M  V30 1 2 1 2
M  V30 2 1 2 3
M  V30 3 1 4 2 CFG=3
M  V30 4 1 3 5
M  V30 5 1 4 6
M  V30 6 1 4 7
M  V30 7 2 5 8
M  V30 8 1 5 9
M  V30 9 1 6 10
M  V30 10 1 6 11
M  V30 11 1 7 12
M  V30 12 1 8 13
M  V30 13 1 8 14
M  V30 14 2 9 15
M  V30 15 1 9 16
M  V30 16 1 10 17
M  V30 17 2 13 18
M  V30 18 1 12 17
M  V30 19 1 15 18
M  V30 END BOND
M  V30 BEGIN COLLECTION
M  V30 MDLV30/STERAC1 ATOMS=(1 4)
M  V30 END COLLECTION
M  V30 END CTAB
M  END
>  <Molecule Name>


>  <status>
-

>  <cas>
96-88-8

>  <name>
MEPIVACAINE

>  <ID>
1123

>  <Smiles>
Cc1cccc(C)c1NC(C1N(C)CCCC1)=O

$$$$

Actelion Java MolfileCreator 2.0

  0  0  0  0  0  0              0 V3000
M  V30 BEGIN CTAB
M  V30 COUNTS 20 21 0 0 0
M  V30 BEGIN ATOM
M  V30 1 Cl 7.9021 -2.2811 0.0 0
M  V30 2 C 7.9021 -0.7603 0.0 0
M  V30 3 C 6.5851 0.0 0.0 0
M  V30 4 C 9.2191 0.0 0.0 0
M  V30 5 C 6.7052 1.3724 0.0 0
M  V30 6 C 5.2681 -0.7603 0.0 0 CFG=1
M  V30 7 C 9.2191 1.5207 0.0 0
M  V30 8 C 7.9021 2.2811 0.0 0
M  V30 9 O 5.2681 -2.2811 0.0 0
M  V30 10 C 5.2681 0.7603 0.0 0
M  V30 11 C 3.951 0.0 0.0 0
M  V30 12 C 6.3742 1.8371 0.0 0
M  V30 13 C 3.951 1.5207 0.0 0
M  V30 14 C 2.634 -0.7603 0.0 0
M  V30 15 C 6.5851 3.0415 0.0 0
M  V30 16 C 3.951 3.0415 0.0 0
M  V30 17 N 1.317 0.0 0.0 0
M  V30 18 C 5.2681 3.8019 0.0 0
M  V30 19 C 1.317 1.5207 0.0 0
M  V30 20 C 0.0 -0.7603 0.0 0
M  V30 END ATOM
M  V30 BEGIN BOND
M  V30 1 1 1 2
M  V30 2 2 2 3
M  V30 3 1 2 4
M  V30 4 1 3 5
M  V30 5 1 6 3
M  V30 6 2 4 7
M  V30 7 2 5 8
M  V30 8 1 6 9
M  V30 9 1 6 10 CFG=1
M  V30 10 1 6 11
M  V30 11 2 10 12
M  V30 12 1 10 13
M  V30 13 1 11 14
M  V30 14 1 12 15
M  V30 15 2 13 16
M  V30 16 1 14 17
M  V30 17 2 15 18
M  V30 18 1 17 19
M  V30 19 1 17 20
M  V30 20 1 7 8
M  V30 21 1 16 18
M  V30 END BOND
M  V30 BEGIN COLLECTION
M  V30 MDLV30/STERAC1 ATOMS=(1 6)
M  V30 END COLLECTION
M  V30 END CTAB
M  END
>  <Molecule Name>


>  <status>
DISCONTINUED

>  <cas>
791-35-5

>  <name>
CHLOPHEDIANOL

>  <ID>
1124

>  <Smiles>
CN(C)CCC(c1ccccc1)(c(cccc1)c1Cl)O

$$$$

Actelion Java MolfileCreator 2.0

  0  0  0  0  0  0              0 V3000
M  V30 BEGIN CTAB
M  V30 COUNTS 27 29 0 0 0
M  V30 BEGIN ATOM
M  V30 1 S 5.2228 -0.7538 0.0 0
M  V30 2 O 6.7305 -0.7538 0.0 0
M  V30 3 O 5.9767 0.5518 0.0 0
M  V30 4 N 3.9171 0.0 0.0 0
M  V30 5 C 5.2228 -2.2615 0.0 0
M  V30 6 C 2.6114 -0.7538 0.0 0 CFG=2
M  V30 7 C 3.9171 -3.0154 0.0 0
M  V30 8 C 6.5286 -3.0154 0.0 0
M  V30 9 N 2.6114 -2.2615 0.0 0
M  V30 10 C 1.3057 0.0 0.0 0
M  V30 11 C 3.9171 -4.5231 0.0 0
M  V30 12 C 6.5286 -4.5231 0.0 0
M  V30 13 C 0.0 -0.7538 0.0 0
M  V30 14 C 5.2228 -5.277 0.0 0
M  V30 15 S 7.8343 -5.277 0.0 0
M  V30 16 C -1.3057 0.0 0.0 0
M  V30 17 C 0.0 -2.2615 0.0 0
M  V30 18 C 5.2228 -6.7847 0.0 0
M  V30 19 O 7.1562 -6.539 0.0 0
M  V30 20 O 8.5881 -3.9712 0.0 0
M  V30 21 N 9.14 -6.0308 0.0 0
M  V30 22 C -2.6114 -0.7538 0.0 0
M  V30 23 C -1.3057 -3.0154 0.0 0
M  V30 24 F 6.5791 -6.8721 0.0 0
M  V30 25 F 5.2228 -8.2924 0.0 0
M  V30 26 F 3.7151 -6.7847 0.0 0
M  V30 27 C -2.6114 -2.2615 0.0 0
M  V30 END ATOM
M  V30 BEGIN BOND
M  V30 1 2 1 2
M  V30 2 2 1 3
M  V30 3 1 1 4
M  V30 4 1 1 5
M  V30 5 1 6 4
M  V30 6 2 5 7
M  V30 7 1 5 8
M  V30 8 1 6 9
M  V30 9 1 6 10 CFG=3
M  V30 10 1 7 11
M  V30 11 2 8 12
M  V30 12 1 10 13
M  V30 13 2 11 14
M  V30 14 1 12 15
M  V30 15 2 13 16
M  V30 16 1 13 17
M  V30 17 1 14 18
M  V30 18 2 15 19
M  V30 19 2 15 20
M  V30 20 1 15 21
M  V30 21 1 16 22
M  V30 22 2 17 23
M  V30 23 1 18 24
M  V30 24 1 18 25
M  V30 25 1 18 26
M  V30 26 2 22 27
M  V30 27 1 7 9
M  V30 28 1 12 14
M  V30 29 1 23 27
M  V30 END BOND
M  V30 BEGIN COLLECTION
M  V30 MDLV30/STERAC1 ATOMS=(1 6)
M  V30 END COLLECTION
M  V30 END CTAB
M  END
>  <Molecule Name>


>  <status>
DISCONTINUED

>  <cas>
73-48-3

>  <name>
BENDROFLUMETHIAZIDE

>  <ID>
1125

>  <Smiles>
NS(c(c(C(F)(F)F)c1)cc2c1NC(Cc1ccccc1)NS2(=O)=O)(=O)=O

$$$$

Actelion Java MolfileCreator 2.0

  0  0  0  0  0  0              0 V3000
M  V30 BEGIN CTAB
M  V30 COUNTS 20 21 0 0 0
M  V30 BEGIN ATOM
M  V30 1 Cl 5.1961 -6.75 0.0 0
M  V30 2 C 5.1961 -5.25 0.0 0
M  V30 3 C 6.4952 -4.5 0.0 0
M  V30 4 C 3.8971 -4.5 0.0 0
M  V30 5 S 7.7942 -5.25 0.0 0
M  V30 6 C 6.4952 -3.0 0.0 0
M  V30 7 C 3.8971 -3.0 0.0 0
M  V30 8 O 7.0442 -6.549 0.0 0
M  V30 9 O 8.5442 -3.9509 0.0 0
M  V30 10 N 9.0932 -6.0 0.0 0
M  V30 11 C 5.1961 -2.25 0.0 0
M  V30 12 N 2.598 -2.25 0.0 0
M  V30 13 S 5.1961 -0.75 0.0 0
M  V30 14 C 2.598 -0.75 0.0 0 CFG=1
M  V30 15 O 6.6961 -0.75 0.0 0
M  V30 16 O 5.9461 0.549 0.0 0
M  V30 17 N 3.8971 0.0 0.0 0
M  V30 18 C 1.299 0.0 0.0 0
M  V30 19 Cl 1.299 1.5 0.0 0
M  V30 20 Cl 0.0 -0.75 0.0 0
M  V30 END ATOM
M  V30 BEGIN BOND
M  V30 1 1 1 2
M  V30 2 2 2 3
M  V30 3 1 2 4
M  V30 4 1 3 5
M  V30 5 1 3 6
M  V30 6 2 4 7
M  V30 7 2 5 8
M  V30 8 2 5 9
M  V30 9 1 5 10
M  V30 10 2 6 11
M  V30 11 1 7 12
M  V30 12 1 11 13
M  V30 13 1 14 12
M  V30 14 2 13 15
M  V30 15 2 13 16
M  V30 16 1 13 17
M  V30 17 1 14 18 CFG=3
M  V30 18 1 18 19
M  V30 19 1 18 20
M  V30 20 1 7 11
M  V30 21 1 14 17
M  V30 END BOND
M  V30 BEGIN COLLECTION
M  V30 MDLV30/STERAC1 ATOMS=(1 14)
M  V30 END COLLECTION
M  V30 END CTAB
M  END
>  <Molecule Name>


>  <status>
DISCONTINUED

>  <cas>
133-67-5

>  <name>
TRICHLORMETHIAZIDE

>  <ID>
1126

>  <Smiles>
NS(c(cc(c(NC(C(Cl)Cl)N1)c2)S1(=O)=O)c2Cl)(=O)=O

$$$$

Actelion Java MolfileCreator 2.0

  0  0  0  0  0  0              0 V3000
M  V30 BEGIN CTAB
M  V30 COUNTS 22 24 0 0 0
M  V30 BEGIN ATOM
M  V30 1 Cl 3.4641 1.4999 0.0 0
M  V30 2 C 2.598 0.9999 0.0 0
M  V30 3 C 1.732 1.4999 0.0 0
M  V30 4 C 2.598 0.0 0.0 0
M  V30 5 S 1.732 2.4999 0.0 0
M  V30 6 C 0.866 0.9999 0.0 0
M  V30 7 C 1.732 -0.5 0.0 0
M  V30 8 O 2.732 2.4999 0.0 0
M  V30 9 O 0.732 2.5 0.0 0
M  V30 10 N 1.732 3.4999 0.0 0
M  V30 11 C 0.866 0.0 0.0 0
M  V30 12 C 0.0 -0.5 0.0 0 CFG=2
M  V30 13 O 0.8386 -1.0446 0.0 0
M  V30 14 N -0.9135 -0.0932 0.0 0
M  V30 15 C -0.1045 -1.4945 0.0 0
M  V30 16 C -1.5826 -0.8364 0.0 0
M  V30 17 C -1.0826 -1.7024 0.0 0
M  V30 18 C 0.5646 -2.2376 0.0 0
M  V30 19 O -2.5771 -0.7318 0.0 0
M  V30 20 C -1.3916 -2.6534 0.0 0
M  V30 21 C 0.2555 -3.1887 0.0 0
M  V30 22 C -0.7225 -3.3966 0.0 0
M  V30 END ATOM
M  V30 BEGIN BOND
M  V30 1 1 1 2
M  V30 2 2 2 3
M  V30 3 1 2 4
M  V30 4 1 3 5
M  V30 5 1 3 6
M  V30 6 2 4 7
M  V30 7 2 5 8
M  V30 8 2 5 9
M  V30 9 1 5 10
M  V30 10 2 6 11
M  V30 11 1 12 11
M  V30 12 1 12 13 CFG=3
M  V30 13 1 12 14
M  V30 14 1 12 15
M  V30 15 1 14 16
M  V30 16 2 15 17
M  V30 17 1 15 18
M  V30 18 2 16 19
M  V30 19 1 17 20
M  V30 20 2 18 21
M  V30 21 2 20 22
M  V30 22 1 7 11
M  V30 23 1 16 17
M  V30 24 1 21 22
M  V30 END BOND
M  V30 BEGIN COLLECTION
M  V30 MDLV30/STERAC1 ATOMS=(1 12)
M  V30 END COLLECTION
M  V30 END CTAB
M  END
>  <Molecule Name>


>  <status>
-

>  <cas>
77-36-1

>  <name>
CHLORTHALIDONE

>  <ID>
1127

>  <Smiles>
NS(c(cc(C(c1c2cccc1)(NC2=O)O)cc1)c1Cl)(=O)=O

$$$$

Actelion Java MolfileCreator 2.0

  0  0  0  0  0  0              0 V3000
M  V30 BEGIN CTAB
M  V30 COUNTS 10 10 0 0 0
M  V30 BEGIN ATOM
M  V30 1 O -1.1214 0.8848 0.0 0
M  V30 2 C -0.9135 -0.0932 0.0 0
M  V30 3 N -1.5826 -0.8364 0.0 0
M  V30 4 C 0.0 -0.5 0.0 0 CFG=2
M  V30 5 C -1.0826 -1.7024 0.0 0
M  V30 6 C -0.1045 -1.4945 0.0 0
M  V30 7 C 0.866 0.0 0.0 0
M  V30 8 C 0.8386 -1.0446 0.0 0
M  V30 9 O -1.4894 -2.6159 0.0 0
M  V30 10 C 1.732 -0.5 0.0 0
M  V30 END ATOM
M  V30 BEGIN BOND
M  V30 1 2 1 2
M  V30 2 1 2 3
M  V30 3 1 4 2
M  V30 4 1 3 5
M  V30 5 1 4 6
M  V30 6 1 4 7
M  V30 7 1 4 8 CFG=3
M  V30 8 2 5 9
M  V30 9 1 7 10
M  V30 10 1 5 6
M  V30 END BOND
M  V30 BEGIN COLLECTION
M  V30 MDLV30/STERAC1 ATOMS=(1 4)
M  V30 END COLLECTION
M  V30 END CTAB
M  END
>  <Molecule Name>


>  <status>
-

>  <cas>
77-67-8

>  <name>
ETHOSUXIMIDE

>  <ID>
1128

>  <Smiles>
CCC(C)(CC(N1)=O)C1=O

$$$$

Actelion Java MolfileCreator 2.0

  0  0  0  0  0  0              0 V3000
M  V30 BEGIN CTAB
M  V30 COUNTS 24 26 0 0 0
M  V30 BEGIN ATOM
M  V30 1 S 7.7942 -2.2499 0.0 0
M  V30 2 C 7.7942 -0.75 0.0 0
M  V30 3 C 6.4951 -2.9999 0.0 0
M  V30 4 C 6.4951 0.0 0.0 0
M  V30 5 C 9.0932 0.0 0.0 0
M  V30 6 C 5.1961 -2.25 0.0 0
M  V30 7 C 6.4951 -4.5 0.0 0
M  V30 8 N 5.1961 -0.75 0.0 0
M  V30 9 C 6.4951 1.5 0.0 0
M  V30 10 C 9.0932 1.5 0.0 0
M  V30 11 C 3.8971 -3.0 0.0 0
M  V30 12 C 5.1961 -5.25 0.0 0
M  V30 13 C 3.8971 0.0 0.0 0
M  V30 14 C 7.7942 2.25 0.0 0
M  V30 15 C 3.8971 -4.5 0.0 0
M  V30 16 C 2.598 -0.75 0.0 0 CFG=1
M  V30 17 C 7.7942 3.75 0.0 0
M  V30 18 N 1.299 0.0 0.0 0
M  V30 19 C 2.598 -2.25 0.0 0
M  V30 20 O 6.4951 4.4999 0.0 0
M  V30 21 C 9.0932 4.5 0.0 0
M  V30 22 C 1.299 1.5 0.0 0
M  V30 23 C 0.0 -0.75 0.0 0
M  V30 24 C 9.0932 6.0 0.0 0
M  V30 END ATOM
M  V30 BEGIN BOND
M  V30 1 1 1 2
M  V30 2 1 1 3
M  V30 3 2 2 4
M  V30 4 1 2 5
M  V30 5 2 3 6
M  V30 6 1 3 7
M  V30 7 1 4 8
M  V30 8 1 4 9
M  V30 9 2 5 10
M  V30 10 1 6 11
M  V30 11 2 7 12
M  V30 12 1 8 13
M  V30 13 2 9 14
M  V30 14 2 11 15
M  V30 15 1 16 13
M  V30 16 1 14 17
M  V30 17 1 16 18 CFG=3
M  V30 18 1 16 19
M  V30 19 2 17 20
M  V30 20 1 17 21
M  V30 21 1 18 22
M  V30 22 1 18 23
M  V30 23 1 21 24
M  V30 24 1 6 8
M  V30 25 1 10 14
M  V30 26 1 12 15
M  V30 END BOND
M  V30 BEGIN COLLECTION
M  V30 MDLV30/STERAC1 ATOMS=(1 16)
M  V30 END COLLECTION
M  V30 END CTAB
M  END
>  <Molecule Name>


>  <status>
DISCONTINUED

>  <cas>
362-29-8

>  <name>
PROPIOMAZINE

>  <ID>
1129

>  <Smiles>
CCC(c(cc1)cc2c1Sc(cccc1)c1N2CC(C)N(C)C)=O

$$$$

Actelion Java MolfileCreator 2.0

  0  0  0  0  0  0              0 V3000
M  V30 BEGIN CTAB
M  V30 COUNTS 15 17 0 0 0
M  V30 BEGIN ATOM
M  V30 1 N 2.598 0.9999 0.0 0
M  V30 2 C 1.732 1.4999 0.0 0
M  V30 3 C 2.598 0.0 0.0 0
M  V30 4 C 0.866 0.9999 0.0 0
M  V30 5 C 1.732 2.4999 0.0 0
M  V30 6 C 1.732 -0.5 0.0 0
M  V30 7 C 3.4641 -0.4999 0.0 0
M  V30 8 C 0.866 0.0 0.0 0
M  V30 9 C 0.0 1.5 0.0 0
M  V30 10 C 0.866 3.0 0.0 0
M  V30 11 C 1.732 -1.5 0.0 0
M  V30 12 C 3.4641 -1.4999 0.0 0
M  V30 13 N 0.0 -0.5 0.0 0
M  V30 14 C 0.0 2.5 0.0 0
M  V30 15 C 2.598 -1.9999 0.0 0
M  V30 END ATOM
M  V30 BEGIN BOND
M  V30 1 1 1 2
M  V30 2 2 1 3
M  V30 3 1 2 4
M  V30 4 2 2 5
M  V30 5 1 3 6
M  V30 6 1 3 7
M  V30 7 1 4 8
M  V30 8 2 4 9
M  V30 9 1 5 10
M  V30 10 1 6 11
M  V30 11 2 7 12
M  V30 12 1 8 13
M  V30 13 1 9 14
M  V30 14 2 11 15
M  V30 15 2 6 8
M  V30 16 2 10 14
M  V30 17 1 12 15
M  V30 END BOND
M  V30 END CTAB
M  END
>  <Molecule Name>


>  <status>
DISCONTINUED

>  <cas>
7527-91-5

>  <name>
ACRISORCIN

>  <ID>
1130

>  <Smiles>
Nc1c(cccc2)c2nc2ccccc12

$$$$

Actelion Java MolfileCreator 2.0

  0  0  0  0  0  0              0 V3000
M  V30 BEGIN CTAB
M  V30 COUNTS 20 21 0 0 0
M  V30 BEGIN ATOM
M  V30 1 Cl 5.1961 -6.75 0.0 0
M  V30 2 C 5.1961 -5.25 0.0 0
M  V30 3 C 6.4952 -4.5 0.0 0
M  V30 4 C 3.8971 -4.5 0.0 0
M  V30 5 S 7.7942 -5.25 0.0 0
M  V30 6 C 6.4952 -3.0 0.0 0
M  V30 7 C 3.8971 -3.0 0.0 0
M  V30 8 O 7.0442 -6.549 0.0 0
M  V30 9 O 8.5442 -3.9509 0.0 0
M  V30 10 N 9.0932 -6.0 0.0 0
M  V30 11 C 5.1961 -2.25 0.0 0
M  V30 12 N 2.598 -2.25 0.0 0
M  V30 13 S 5.1961 -0.75 0.0 0
M  V30 14 C 2.598 -0.75 0.0 0 CFG=1
M  V30 15 O 6.6961 -0.75 0.0 0
M  V30 16 O 5.9461 0.549 0.0 0
M  V30 17 N 3.8971 0.0 0.0 0
M  V30 18 C 1.299 0.0 0.0 0
M  V30 19 C 3.8971 1.5 0.0 0
M  V30 20 Cl 0.0 -0.75 0.0 0
M  V30 END ATOM
M  V30 BEGIN BOND
M  V30 1 1 1 2
M  V30 2 2 2 3
M  V30 3 1 2 4
M  V30 4 1 3 5
M  V30 5 1 3 6
M  V30 6 2 4 7
M  V30 7 2 5 8
M  V30 8 2 5 9
M  V30 9 1 5 10
M  V30 10 2 6 11
M  V30 11 1 7 12
M  V30 12 1 11 13
M  V30 13 1 14 12
M  V30 14 2 13 15
M  V30 15 2 13 16
M  V30 16 1 13 17
M  V30 17 1 14 18 CFG=3
M  V30 18 1 17 19
M  V30 19 1 18 20
M  V30 20 1 7 11
M  V30 21 1 14 17
M  V30 END BOND
M  V30 BEGIN COLLECTION
M  V30 MDLV30/STERAC1 ATOMS=(1 14)
M  V30 END COLLECTION
M  V30 END CTAB
M  END
>  <Molecule Name>


>  <status>
DISCONTINUED

>  <cas>
135-07-9

>  <name>
METHYCLOTHIAZIDE

>  <ID>
1131

>  <Smiles>
CN(C(CCl)Nc(c1c2)cc(Cl)c2S(N)(=O)=O)S1(=O)=O

$$$$

Actelion Java MolfileCreator 2.0

  0  0  0  0  0  0              0 V3000
M  V30 BEGIN CTAB
M  V30 COUNTS 24 26 0 0 0
M  V30 BEGIN ATOM
M  V30 1 O 2.8254 -2.1636 0.0 0
M  V30 2 C 3.5686 -1.4945 0.0 0
M  V30 3 N 4.5467 -1.7024 0.0 0
M  V30 4 C 3.4641 -0.5 0.0 0 CFG=2
M  V30 5 N 5.0467 -0.8364 0.0 0
M  V30 6 C 4.9535 -2.6159 0.0 0
M  V30 7 C 4.3776 -0.0932 0.0 0
M  V30 8 C 2.598 0.0 0.0 0
M  V30 9 C 6.0412 -0.7318 0.0 0
M  V30 10 C 4.3657 -3.4249 0.0 0
M  V30 11 C 5.948 -2.7205 0.0 0
M  V30 12 O 4.5855 0.8848 0.0 0
M  V30 13 C 1.732 -0.5 0.0 0
M  V30 14 C 6.629 -1.5408 0.0 0
M  V30 15 C 6.448 0.1816 0.0 0
M  V30 16 C 4.7724 -4.3385 0.0 0
M  V30 17 C 6.3547 -3.634 0.0 0
M  V30 18 C 0.866 0.0 0.0 0
M  V30 19 C 7.6236 -1.4363 0.0 0
M  V30 20 C 7.4425 0.2861 0.0 0
M  V30 21 C 5.7669 -4.443 0.0 0
M  V30 22 C 0.0 -0.5 0.0 0
M  V30 23 C 8.0303 -0.5228 0.0 0
M  V30 24 O 6.1737 -5.3566 0.0 0
M  V30 END ATOM
M  V30 BEGIN BOND
M  V30 1 2 1 2
M  V30 2 1 2 3
M  V30 3 1 4 2
M  V30 4 1 3 5
M  V30 5 1 3 6
M  V30 6 1 4 7
M  V30 7 1 4 8 CFG=1
M  V30 8 1 5 9
M  V30 9 2 6 10
M  V30 10 1 6 11
M  V30 11 2 7 12
M  V30 12 1 8 13
M  V30 13 2 9 14
M  V30 14 1 9 15
M  V30 15 1 10 16
M  V30 16 2 11 17
M  V30 17 1 13 18
M  V30 18 1 14 19
M  V30 19 2 15 20
M  V30 20 2 16 21
M  V30 21 1 18 22
M  V30 22 2 19 23
M  V30 23 1 21 24
M  V30 24 1 5 7
M  V30 25 1 17 21
M  V30 26 1 20 23
M  V30 END BOND
M  V30 BEGIN COLLECTION
M  V30 MDLV30/STERAC1 ATOMS=(1 4)
M  V30 END COLLECTION
M  V30 END CTAB
M  END
>  <Molecule Name>


>  <status>
DISCONTINUED

>  <cas>
129-20-4

>  <name>
OXYPHENBUTAZONE

>  <ID>
1132

>  <Smiles>
CCCCC(C(N(c1ccccc1)N1c(cc2)ccc2O)=O)C1=O

$$$$

Actelion Java MolfileCreator 2.0

  0  0  0  0  0  0              0 V3000
M  V30 BEGIN CTAB
M  V30 COUNTS 25 26 0 0 0
M  V30 BEGIN ATOM
M  V30 1 Cl 7.7942 -6.75 0.0 0
M  V30 2 C 7.7942 -5.25 0.0 0
M  V30 3 C 9.0932 -4.5 0.0 0
M  V30 4 C 6.4952 -4.5 0.0 0
M  V30 5 S 10.3923 -5.25 0.0 0
M  V30 6 C 9.0932 -3.0 0.0 0
M  V30 7 C 6.4952 -3.0 0.0 0
M  V30 8 O 9.6423 -6.549 0.0 0
M  V30 9 O 11.1423 -3.9509 0.0 0
M  V30 10 N 11.6913 -6.0 0.0 0
M  V30 11 C 7.7942 -2.25 0.0 0
M  V30 12 N 5.1961 -2.25 0.0 0
M  V30 13 S 7.7942 -0.75 0.0 0
M  V30 14 C 5.1961 -0.75 0.0 0 CFG=1
M  V30 15 O 9.2942 -0.75 0.0 0
M  V30 16 O 8.5442 0.549 0.0 0
M  V30 17 N 6.4952 0.0 0.0 0
M  V30 18 C 3.8971 0.0 0.0 0
M  V30 19 C 6.4952 1.5 0.0 0
M  V30 20 S 2.598 -0.75 0.0 0
M  V30 21 C 1.299 0.0 0.0 0
M  V30 22 C 0.0 -0.75 0.0 0
M  V30 23 F 0.75 -2.049 0.0 0
M  V30 24 F -1.299 -1.5 0.0 0
M  V30 25 F -0.75 0.549 0.0 0
M  V30 END ATOM
M  V30 BEGIN BOND
M  V30 1 1 1 2
M  V30 2 2 2 3
M  V30 3 1 2 4
M  V30 4 1 3 5
M  V30 5 1 3 6
M  V30 6 2 4 7
M  V30 7 2 5 8
M  V30 8 2 5 9
M  V30 9 1 5 10
M  V30 10 2 6 11
M  V30 11 1 7 12
M  V30 12 1 11 13
M  V30 13 1 14 12
M  V30 14 2 13 15
M  V30 15 2 13 16
M  V30 16 1 13 17
M  V30 17 1 14 18 CFG=3
M  V30 18 1 17 19
M  V30 19 1 18 20
M  V30 20 1 20 21
M  V30 21 1 21 22
M  V30 22 1 22 23
M  V30 23 1 22 24
M  V30 24 1 22 25
M  V30 25 1 7 11
M  V30 26 1 14 17
M  V30 END BOND
M  V30 BEGIN COLLECTION
M  V30 MDLV30/STERAC1 ATOMS=(1 14)
M  V30 END COLLECTION
M  V30 END CTAB
M  END
>  <Molecule Name>


>  <status>
DISCONTINUED

>  <cas>
346-18-9

>  <name>
POLYTHIAZIDE

>  <ID>
1133

>  <Smiles>
CN(C(CSCC(F)(F)F)Nc(c1c2)cc(Cl)c2S(N)(=O)=O)S1(=O)=O

$$$$

Actelion Java MolfileCreator 2.0

  0  0  0  0  0  0              0 V3000
M  V30 BEGIN CTAB
M  V30 COUNTS 16 17 0 0 0
M  V30 BEGIN ATOM
M  V30 1 O 4.0874 2.1159 0.0 0
M  V30 2 C 3.6807 1.2024 0.0 0
M  V30 3 O 2.7026 0.9945 0.0 0
M  V30 4 N 4.1807 0.3364 0.0 0
M  V30 5 C 2.598 0.0 0.0 0 CFG=2
M  V30 6 C 3.5116 -0.4067 0.0 0
M  V30 7 C 1.732 -0.5 0.0 0
M  V30 8 O 0.866 0.0 0.0 0
M  V30 9 C 0.0 -0.5 0.0 0
M  V30 10 C -0.866 0.0 0.0 0
M  V30 11 C 0.0 -1.4999 0.0 0
M  V30 12 C -1.732 -0.4999 0.0 0
M  V30 13 C -0.866 -1.9999 0.0 0
M  V30 14 C -1.732 -1.4999 0.0 0
M  V30 15 C -2.598 0.0 0.0 0
M  V30 16 C -0.866 -2.9999 0.0 0
M  V30 END ATOM
M  V30 BEGIN BOND
M  V30 1 2 1 2
M  V30 2 1 2 3
M  V30 3 1 2 4
M  V30 4 1 5 3
M  V30 5 1 4 6
M  V30 6 1 5 7 CFG=3
M  V30 7 1 7 8
M  V30 8 1 8 9
M  V30 9 2 9 10
M  V30 10 1 9 11
M  V30 11 1 10 12
M  V30 12 2 11 13
M  V30 13 2 12 14
M  V30 14 1 12 15
M  V30 15 1 13 16
M  V30 16 1 5 6
M  V30 17 1 13 14
M  V30 END BOND
M  V30 BEGIN COLLECTION
M  V30 MDLV30/STERAC1 ATOMS=(1 5)
M  V30 END COLLECTION
M  V30 END CTAB
M  END
>  <Molecule Name>


>  <status>
-

>  <cas>
1665-48-1

>  <name>
METAXALONE

>  <ID>
1134

>  <Smiles>
Cc1cc(OCC(CN2)OC2=O)cc(C)c1

$$$$

Actelion Java MolfileCreator 2.0

  0  0  0  0  0  0              0 V3000
M  V30 BEGIN CTAB
M  V30 COUNTS 18 19 0 0 0
M  V30 BEGIN ATOM
M  V30 1 Cl 3.4641 -4.4999 0.0 0
M  V30 2 C 3.4641 -3.4999 0.0 0
M  V30 3 C 4.3301 -3.0 0.0 0
M  V30 4 C 2.598 -2.9999 0.0 0
M  V30 5 S 5.1961 -3.5 0.0 0
M  V30 6 C 4.3301 -1.9999 0.0 0
M  V30 7 C 2.598 -2.0 0.0 0
M  V30 8 O 4.6961 -4.366 0.0 0
M  V30 9 O 5.6961 -2.6339 0.0 0
M  V30 10 N 6.0621 -4.0 0.0 0
M  V30 11 C 3.4641 -1.5 0.0 0
M  V30 12 N 1.732 -1.5 0.0 0
M  V30 13 C 3.4641 -0.5 0.0 0
M  V30 14 C 1.732 -0.5 0.0 0 CFG=1
M  V30 15 O 4.3301 0.0 0.0 0
M  V30 16 N 2.598 0.0 0.0 0
M  V30 17 C 0.866 0.0 0.0 0
M  V30 18 C 0.0 -0.5 0.0 0
M  V30 END ATOM
M  V30 BEGIN BOND
M  V30 1 1 1 2
M  V30 2 2 2 3
M  V30 3 1 2 4
M  V30 4 1 3 5
M  V30 5 1 3 6
M  V30 6 2 4 7
M  V30 7 2 5 8
M  V30 8 2 5 9
M  V30 9 1 5 10
M  V30 10 2 6 11
M  V30 11 1 7 12
M  V30 12 1 11 13
M  V30 13 1 14 12
M  V30 14 2 13 15
M  V30 15 1 13 16
M  V30 16 1 14 17 CFG=3
M  V30 17 1 17 18
M  V30 18 1 7 11
M  V30 19 1 14 16
M  V30 END BOND
M  V30 BEGIN COLLECTION
M  V30 MDLV30/STERAC1 ATOMS=(1 14)
M  V30 END COLLECTION
M  V30 END CTAB
M  END
>  <Molecule Name>


>  <status>
DISCONTINUED

>  <cas>
73-49-4

>  <name>
QUINETHAZONE

>  <ID>
1135

>  <Smiles>
CCC(Nc(c1c2)cc(Cl)c2S(N)(=O)=O)NC1=O

$$$$

Actelion Java MolfileCreator 2.0

  0  0  0  0  0  0              0 V3000
M  V30 BEGIN CTAB
M  V30 COUNTS 16 16 0 0 0
M  V30 BEGIN ATOM
M  V30 1 O 4.3301 0.9999 0.0 0
M  V30 2 C 4.3301 0.0 0.0 0
M  V30 3 N 5.1961 -0.5 0.0 0
M  V30 4 C 3.4641 -0.5 0.0 0 CFG=1
M  V30 5 C 6.0621 0.0 0.0 0
M  V30 6 N 2.598 0.0 0.0 0
M  V30 7 C 3.4641 -1.5 0.0 0
M  V30 8 C 6.9282 -0.5 0.0 0
M  V30 9 C 6.0621 0.9999 0.0 0
M  V30 10 C 1.732 -0.5 0.0 0
M  V30 11 C 7.7942 0.0 0.0 0
M  V30 12 C 6.9282 -1.5 0.0 0
M  V30 13 C 6.9282 1.4999 0.0 0
M  V30 14 C 0.866 0.0 0.0 0
M  V30 15 C 7.7942 0.9999 0.0 0
M  V30 16 C 0.0 -0.5 0.0 0
M  V30 END ATOM
M  V30 BEGIN BOND
M  V30 1 2 1 2
M  V30 2 1 2 3
M  V30 3 1 4 2
M  V30 4 1 3 5
M  V30 5 1 4 6 CFG=3
M  V30 6 1 4 7
M  V30 7 2 5 8
M  V30 8 1 5 9
M  V30 9 1 6 10
M  V30 10 1 8 11
M  V30 11 1 8 12
M  V30 12 2 9 13
M  V30 13 1 10 14
M  V30 14 2 11 15
M  V30 15 1 14 16
M  V30 16 1 13 15
M  V30 END BOND
M  V30 BEGIN COLLECTION
M  V30 MDLV30/STERAC1 ATOMS=(1 4)
M  V30 END COLLECTION
M  V30 END CTAB
M  END
>  <Molecule Name>


>  <status>
-

>  <cas>
721-50-6

>  <name>
PRILOCAINE

>  <ID>
1136

>  <Smiles>
CCCNC(C)C(Nc1c(C)cccc1)=O

$$$$

Actelion Java MolfileCreator 2.0

  0  0  0  0  0  0              0 V3000
M  V30 BEGIN CTAB
M  V30 COUNTS 28 31 0 0 0
M  V30 BEGIN ATOM
M  V30 1 O 7.881 0.3531 0.0 0
M  V30 2 C 6.3665 0.5122 0.0 0
M  V30 3 N 5.6051 1.831 0.0 0
M  V30 4 C 5.3475 -0.6193 0.0 0
M  V30 5 C 4.1155 1.5144 0.0 0
M  V30 6 C 6.2245 3.2222 0.0 0
M  V30 7 C 5.6641 -2.1089 0.0 0
M  V30 8 C 4.1641 -1.5777 0.0 0
M  V30 9 C 3.9564 0.0 0.0 0 CFG=2
M  V30 10 C 5.3294 4.4542 0.0 0
M  V30 11 C 4.8262 -3.2319 0.0 0
M  V30 12 C 7.1124 -2.5795 0.0 0
M  V30 13 C 2.8275 -1.2516 0.0 0
M  V30 14 C 4.2554 -3.0297 0.0 0
M  V30 15 C 2.595 -0.6515 0.0 0
M  V30 16 C 4.8491 -4.6174 0.0 0
M  V30 17 C 7.429 -4.069 0.0 0
M  V30 18 C 1.5589 -1.9903 0.0 0
M  V30 19 C 3.2188 -4.0401 0.0 0
M  V30 20 C 1.3188 0.0 0.0 0
M  V30 21 C 6.2974 -5.088 0.0 0
M  V30 22 C 1.7972 -3.4944 0.0 0
M  V30 23 N 0.0 -0.7614 0.0 0
M  V30 24 C -1.3188 0.0 0.0 0
M  V30 25 C 0.0 -2.2842 0.0 0
M  V30 26 C -2.6376 -0.7614 0.0 0
M  V30 27 C -1.3188 -3.0456 0.0 0
M  V30 28 O -2.6376 -2.2842 0.0 0
M  V30 END ATOM
M  V30 BEGIN BOND
M  V30 1 2 1 2
M  V30 2 1 2 3
M  V30 3 1 2 4
M  V30 4 1 3 5
M  V30 5 1 3 6
M  V30 6 1 4 7
M  V30 7 1 4 8
M  V30 8 1 9 4
M  V30 9 1 6 10
M  V30 10 2 7 11
M  V30 11 1 7 12
M  V30 12 2 8 13
M  V30 13 1 8 14
M  V30 14 1 9 15 CFG=1
M  V30 15 1 11 16
M  V30 16 2 12 17
M  V30 17 1 13 18
M  V30 18 2 14 19
M  V30 19 1 15 20
M  V30 20 2 16 21
M  V30 21 2 18 22
M  V30 22 1 20 23
M  V30 23 1 23 24
M  V30 24 1 23 25
M  V30 25 1 24 26
M  V30 26 1 25 27
M  V30 27 1 26 28
M  V30 28 1 5 9
M  V30 29 1 17 21
M  V30 30 1 19 22
M  V30 31 1 27 28
M  V30 END BOND
M  V30 BEGIN COLLECTION
M  V30 MDLV30/STERAC1 ATOMS=(1 9)
M  V30 END COLLECTION
M  V30 END CTAB
M  END
>  <Molecule Name>


>  <status>
-

>  <cas>
309-29-5

>  <name>
DOXAPRAM

>  <ID>
1137

>  <Smiles>
CCN(CC(CCN1CCOCC1)C1(c2ccccc2)c2ccccc2)C1=O

$$$$

Actelion Java MolfileCreator 2.0

  0  0  0  0  0  0              0 V3000
M  V30 BEGIN CTAB
M  V30 COUNTS 20 22 0 0 0
M  V30 BEGIN ATOM
M  V30 1 Cl 0.866 0.0 0.0 0
M  V30 2 C 0.0 -0.5 0.0 0
M  V30 3 C -0.866 0.0 0.0 0
M  V30 4 C 0.0 -1.4999 0.0 0
M  V30 5 C -1.732 -0.4999 0.0 0
M  V30 6 C -0.866 -1.9999 0.0 0
M  V30 7 C -2.5138 0.1234 0.0 0
M  V30 8 C -1.732 -1.4999 0.0 0
M  V30 9 N -3.4888 -0.099 0.0 0
M  V30 10 C -2.2913 1.0984 0.0 0
M  V30 11 N -2.5138 -2.1234 0.0 0
M  V30 12 C -3.9226 -0.9999 0.0 0 CFG=2
M  V30 13 C -1.3357 1.3931 0.0 0
M  V30 14 C -3.0244 1.7785 0.0 0
M  V30 15 C -3.4888 -1.9009 0.0 0
M  V30 16 O -4.9226 -0.9999 0.0 0
M  V30 17 C -1.1132 2.3681 0.0 0
M  V30 18 C -2.8018 2.7535 0.0 0
M  V30 19 O -4.1123 -2.6828 0.0 0
M  V30 20 C -1.8463 3.0482 0.0 0
M  V30 END ATOM
M  V30 BEGIN BOND
M  V30 1 1 1 2
M  V30 2 2 2 3
M  V30 3 1 2 4
M  V30 4 1 3 5
M  V30 5 2 4 6
M  V30 6 1 5 7
M  V30 7 2 5 8
M  V30 8 2 7 9
M  V30 9 1 7 10
M  V30 10 1 8 11
M  V30 11 1 12 9
M  V30 12 2 10 13
M  V30 13 1 10 14
M  V30 14 1 11 15
M  V30 15 1 12 16 CFG=3
M  V30 16 1 13 17
M  V30 17 2 14 18
M  V30 18 2 15 19
M  V30 19 2 17 20
M  V30 20 1 6 8
M  V30 21 1 12 15
M  V30 22 1 18 20
M  V30 END BOND
M  V30 BEGIN COLLECTION
M  V30 MDLV30/STERAC1 ATOMS=(1 12)
M  V30 END COLLECTION
M  V30 END CTAB
M  END
>  <Molecule Name>


>  <status>
-

>  <cas>
604-75-1

>  <name>
OXAZEPAM

>  <ID>
1138

>  <Smiles>
OC1N=C(c2ccccc2)c(cc(cc2)Cl)c2NC1=O

$$$$

Actelion Java MolfileCreator 2.0

  0  0  0  0  0  0              0 V3000
M  V30 BEGIN CTAB
M  V30 COUNTS 19 20 0 0 0
M  V30 BEGIN ATOM
M  V30 1 O 5.1961 -0.5 0.0 0
M  V30 2 C 6.0621 0.0 0.0 0
M  V30 3 C 4.3301 0.0 0.0 0
M  V30 4 C 6.9282 -0.5 0.0 0
M  V30 5 C 6.0621 0.9999 0.0 0
M  V30 6 C 3.4641 -0.5 0.0 0 CFG=1
M  V30 7 C 7.7942 0.0 0.0 0
M  V30 8 C 6.9282 -1.4999 0.0 0
M  V30 9 C 6.9282 1.4999 0.0 0
M  V30 10 O 3.4641 -1.5 0.0 0
M  V30 11 C 2.598 0.0 0.0 0
M  V30 12 C 7.7942 0.9999 0.0 0
M  V30 13 C 8.6602 -0.5 0.0 0
M  V30 14 C 7.7942 -2.0 0.0 0
M  V30 15 N 1.732 -0.5 0.0 0
M  V30 16 C 8.6602 -1.5 0.0 0
M  V30 17 C 0.866 0.0 0.0 0
M  V30 18 C 0.866 1.0 0.0 0
M  V30 19 C 0.0 -0.5 0.0 0
M  V30 END ATOM
M  V30 BEGIN BOND
M  V30 1 1 1 2
M  V30 2 1 1 3
M  V30 3 1 2 4
M  V30 4 2 2 5
M  V30 5 1 6 3
M  V30 6 1 4 7
M  V30 7 2 4 8
M  V30 8 1 5 9
M  V30 9 1 6 10 CFG=1
M  V30 10 1 6 11
M  V30 11 1 7 12
M  V30 12 2 7 13
M  V30 13 1 8 14
M  V30 14 1 11 15
M  V30 15 1 13 16
M  V30 16 1 15 17
M  V30 17 1 17 18
M  V30 18 1 17 19
M  V30 19 2 9 12
M  V30 20 2 14 16
M  V30 END BOND
M  V30 BEGIN COLLECTION
M  V30 MDLV30/STERAC1 ATOMS=(1 6)
M  V30 END COLLECTION
M  V30 END CTAB
M  END
>  <Molecule Name>


>  <status>
-

>  <cas>
525-66-6

>  <name>
PROPRANOLOL

>  <ID>
1139

>  <Smiles>
CC(C)NCC(COc1cccc2ccccc12)O

$$$$

Actelion Java MolfileCreator 2.0

  0  0  0  0  0  0              0 V3000
M  V30 BEGIN CTAB
M  V30 COUNTS 22 24 0 0 0
M  V30 BEGIN ATOM
M  V30 1 N 4.3301 0.0 0.0 0
M  V30 2 C 4.2553 0.9972 0.0 0
M  V30 3 C 5.1563 -0.5633 0.0 0
M  V30 4 C 3.4641 -0.5 0.0 0
M  V30 5 C 4.9884 1.6773 0.0 0
M  V30 6 C 3.2998 1.2919 0.0 0
M  V30 7 C 6.1119 -0.2685 0.0 0
M  V30 8 C 4.9338 -1.5382 0.0 0
M  V30 9 C 2.598 0.0 0.0 0 CFG=2
M  V30 10 C 4.7659 2.6523 0.0 0
M  V30 11 C 5.9772 1.5283 0.0 0
M  V30 12 C 3.0773 2.2668 0.0 0
M  V30 13 C 6.8449 -0.9487 0.0 0
M  V30 14 C 6.4772 0.6623 0.0 0
M  V30 15 C 5.6668 -2.2184 0.0 0
M  V30 16 C 2.598 0.9999 0.0 0
M  V30 17 C 1.732 -0.5 0.0 0
M  V30 18 C 3.8103 2.947 0.0 0
M  V30 19 C 6.6224 -1.9236 0.0 0
M  V30 20 N 1.732 1.4999 0.0 0
M  V30 21 C 0.866 0.9999 0.0 0
M  V30 22 C 1.732 2.4999 0.0 0
M  V30 END ATOM
M  V30 BEGIN BOND
M  V30 1 1 1 2
M  V30 2 1 1 3
M  V30 3 1 1 4
M  V30 4 2 2 5
M  V30 5 1 2 6
M  V30 6 2 3 7
M  V30 7 1 3 8
M  V30 8 1 9 4
M  V30 9 1 5 10
M  V30 10 1 5 11
M  V30 11 2 6 12
M  V30 12 1 7 13
M  V30 13 1 7 14
M  V30 14 2 8 15
M  V30 15 1 9 16
M  V30 16 1 9 17 CFG=1
M  V30 17 2 10 18
M  V30 18 2 13 19
M  V30 19 1 16 20
M  V30 20 1 20 21
M  V30 21 1 20 22
M  V30 22 1 11 14
M  V30 23 1 12 18
M  V30 24 1 15 19
M  V30 END BOND
M  V30 BEGIN COLLECTION
M  V30 MDLV30/STERAC1 ATOMS=(1 9)
M  V30 END COLLECTION
M  V30 END CTAB
M  END
>  <Molecule Name>


>  <status>
-

>  <cas>
739-71-9

>  <name>
TRIMIPRAMINE

>  <ID>
1140

>  <Smiles>
CC(CN(C)C)CN(c1c(CC2)cccc1)c1c2cccc1

$$$$

Actelion Java MolfileCreator 2.0

  0  0  0  0  0  0              0 V3000
M  V30 BEGIN CTAB
M  V30 COUNTS 16 17 0 0 0
M  V30 BEGIN ATOM
M  V30 1 Cl 2.598 0.7499 0.0 0
M  V30 2 C 2.598 -0.75 0.0 0
M  V30 3 C 1.299 -1.5 0.0 0
M  V30 4 C 3.8971 -1.5 0.0 0
M  V30 5 C 1.299 -3.0 0.0 0
M  V30 6 C 0.0 -0.75 0.0 0 CFG=1
M  V30 7 C 3.8971 -3.0 0.0 0
M  V30 8 C 2.598 -3.75 0.0 0
M  V30 9 N 1.299 0.0 0.0 0
M  V30 10 C -1.299 0.0 0.0 0
M  V30 11 C 0.0 -2.25 0.0 0
M  V30 12 C 1.299 1.5 0.0 0
M  V30 13 O -1.299 1.5 0.0 0
M  V30 14 C -2.598 -0.7499 0.0 0
M  V30 15 C -1.299 -2.9999 0.0 0
M  V30 16 C -2.598 -2.2499 0.0 0
M  V30 END ATOM
M  V30 BEGIN BOND
M  V30 1 1 1 2
M  V30 2 2 2 3
M  V30 3 1 2 4
M  V30 4 1 3 5
M  V30 5 1 6 3 CFG=3
M  V30 6 2 4 7
M  V30 7 2 5 8
M  V30 8 1 6 9
M  V30 9 1 6 10
M  V30 10 1 6 11
M  V30 11 1 9 12
M  V30 12 2 10 13
M  V30 13 1 10 14
M  V30 14 1 11 15
M  V30 15 1 14 16
M  V30 16 1 7 8
M  V30 17 1 15 16
M  V30 END BOND
M  V30 BEGIN COLLECTION
M  V30 MDLV30/STERAC1 ATOMS=(1 6)
M  V30 END COLLECTION
M  V30 END CTAB
M  END
>  <Molecule Name>


>  <status>
-

>  <cas>
6740-88-1

>  <name>
KETAMINE

>  <ID>
1141

>  <Smiles>
CNC(CCCC1)(C1=O)c(cccc1)c1Cl

$$$$

Actelion Java MolfileCreator 2.0

  0  0  0  0  0  0              0 V3000
M  V30 BEGIN CTAB
M  V30 COUNTS 29 31 0 0 0
M  V30 BEGIN ATOM
M  V30 1 O 2.598 -0.75 0.0 0
M  V30 2 C 3.8971 0.0 0.0 0
M  V30 3 N 5.1961 -0.7499 0.0 0
M  V30 4 C 3.8971 1.5 0.0 0 CFG=2
M  V30 5 C 5.1961 -2.2499 0.0 0
M  V30 6 C 6.4951 0.0 0.0 0
M  V30 7 C 5.1961 2.25 0.0 0 CFG=1
M  V30 8 C 2.598 2.2499 0.0 0
M  V30 9 C 3.8971 -3.0 0.0 0
M  V30 10 C 7.7942 -0.7499 0.0 0
M  V30 11 O 6.4951 1.5 0.0 0
M  V30 12 C 5.1961 3.75 0.0 0
M  V30 13 N 2.598 3.75 0.0 0
M  V30 14 C 7.7942 2.25 0.0 0
M  V30 15 C 3.8971 4.5 0.0 0 CFG=2
M  V30 16 C 1.299 4.5 0.0 0
M  V30 17 O 7.7942 3.75 0.0 0
M  V30 18 C 9.0932 1.5 0.0 0
M  V30 19 C 3.8971 6.0 0.0 0
M  V30 20 C 1.299 5.9999 0.0 0
M  V30 21 C 2.598 6.7499 0.0 0
M  V30 22 C 5.1961 6.75 0.0 0
M  V30 23 C 2.598 8.25 0.0 0
M  V30 24 C 5.1961 8.25 0.0 0
M  V30 25 C 3.8971 8.9999 0.0 0
M  V30 26 O 6.4951 9.0 0.0 0
M  V30 27 O 3.8971 10.5 0.0 0
M  V30 28 C 6.4951 10.5 0.0 0
M  V30 29 C 2.598 11.2499 0.0 0
M  V30 END ATOM
M  V30 BEGIN BOND
M  V30 1 2 1 2
M  V30 2 1 2 3
M  V30 3 1 4 2 CFG=1
M  V30 4 1 3 5
M  V30 5 1 3 6
M  V30 6 1 7 4
M  V30 7 1 4 8
M  V30 8 1 5 9
M  V30 9 1 6 10
M  V30 10 1 7 11 CFG=3
M  V30 11 1 7 12
M  V30 12 1 8 13
M  V30 13 1 11 14
M  V30 14 1 15 12
M  V30 15 1 13 16
M  V30 16 2 14 17
M  V30 17 1 14 18
M  V30 18 1 15 19
M  V30 19 1 16 20
M  V30 20 2 19 21
M  V30 21 1 19 22
M  V30 22 1 21 23
M  V30 23 2 22 24
M  V30 24 2 23 25
M  V30 25 1 24 26
M  V30 26 1 25 27
M  V30 27 1 26 28
M  V30 28 1 27 29
M  V30 29 1 15 13 CFG=3
M  V30 30 1 20 21
M  V30 31 1 24 25
M  V30 END BOND
M  V30 BEGIN COLLECTION
M  V30 MDLV30/STERAC1 ATOMS=(3 4 7 15)
M  V30 END COLLECTION
M  V30 END CTAB
M  END
>  <Molecule Name>


>  <status>
DISCONTINUED

>  <cas>
63-12-7

>  <name>
BENZQUINAMIDE

>  <ID>
1142

>  <Smiles>
CCN(CC)C([C@@H](CN(CC1)[C@@H](C2)c(cc3OC)c1cc3OC)[C@H]2OC(C)=O)=O

$$$$

Actelion Java MolfileCreator 2.0

  0  0  0  0  0  0              0 V3000
M  V30 BEGIN CTAB
M  V30 COUNTS 13 14 0 0 0
M  V30 BEGIN ATOM
M  V30 1 O 0.866 0.0 0.0 0
M  V30 2 C 0.0 -0.5 0.0 0
M  V30 3 N -0.9135 -0.0932 0.0 0
M  V30 4 C -0.1045 -1.4945 0.0 0 CFG=2
M  V30 5 C -1.5826 -0.8364 0.0 0
M  V30 6 O -1.0826 -1.7024 0.0 0
M  V30 7 C 0.6386 -2.1636 0.0 0
M  V30 8 N -2.5771 -0.7318 0.0 0
M  V30 9 C 0.4307 -3.1418 0.0 0
M  V30 10 C 1.5896 -1.8546 0.0 0
M  V30 11 C 1.1738 -3.8109 0.0 0
M  V30 12 C 2.3328 -2.5237 0.0 0
M  V30 13 C 2.1249 -3.5019 0.0 0
M  V30 END ATOM
M  V30 BEGIN BOND
M  V30 1 2 1 2
M  V30 2 1 2 3
M  V30 3 1 4 2
M  V30 4 2 3 5
M  V30 5 1 4 6
M  V30 6 1 4 7 CFG=1
M  V30 7 1 5 8
M  V30 8 2 7 9
M  V30 9 1 7 10
M  V30 10 1 9 11
M  V30 11 2 10 12
M  V30 12 2 11 13
M  V30 13 1 5 6
M  V30 14 1 12 13
M  V30 END BOND
M  V30 BEGIN COLLECTION
M  V30 MDLV30/STERAC1 ATOMS=(1 4)
M  V30 END COLLECTION
M  V30 END CTAB
M  END
>  <Molecule Name>


>  <status>
DISCONTINUED

>  <cas>
2152-34-3

>  <name>
PEMOLINE

>  <ID>
1143

>  <Smiles>
NC(OC1c2ccccc2)=NC1=O

$$$$

Actelion Java MolfileCreator 2.0

  0  0  0  0  0  0              0 V3000
M  V30 BEGIN CTAB
M  V30 COUNTS 18 19 0 0 0
M  V30 BEGIN ATOM
M  V30 1 Cl 1.732 1.4999 0.0 0
M  V30 2 C 2.598 1.0 0.0 0
M  V30 3 C 2.598 0.0 0.0 0
M  V30 4 C 3.4641 1.4999 0.0 0
M  V30 5 C 3.4641 -0.5 0.0 0
M  V30 6 C 1.732 -0.5 0.0 0 CFG=2
M  V30 7 C 4.3301 1.0 0.0 0
M  V30 8 C 4.3301 0.0 0.0 0
M  V30 9 C 1.732 -1.5 0.0 0
M  V30 10 C 0.866 0.0 0.0 0
M  V30 11 C 0.866 -1.9999 0.0 0
M  V30 12 C 2.598 -2.0 0.0 0
M  V30 13 Cl 0.866 1.0 0.0 0
M  V30 14 Cl 0.0 -0.5 0.0 0
M  V30 15 C 0.866 -2.9999 0.0 0
M  V30 16 C 2.598 -3.0 0.0 0
M  V30 17 C 1.732 -3.5 0.0 0
M  V30 18 Cl 1.732 -4.5 0.0 0
M  V30 END ATOM
M  V30 BEGIN BOND
M  V30 1 1 1 2
M  V30 2 2 2 3
M  V30 3 1 2 4
M  V30 4 1 3 5
M  V30 5 1 6 3 CFG=3
M  V30 6 2 4 7
M  V30 7 2 5 8
M  V30 8 1 6 9
M  V30 9 1 6 10
M  V30 10 2 9 11
M  V30 11 1 9 12
M  V30 12 1 10 13
M  V30 13 1 10 14
M  V30 14 1 11 15
M  V30 15 2 12 16
M  V30 16 2 15 17
M  V30 17 1 17 18
M  V30 18 1 7 8
M  V30 19 1 16 17
M  V30 END BOND
M  V30 BEGIN COLLECTION
M  V30 MDLV30/STERAC1 ATOMS=(1 6)
M  V30 END COLLECTION
M  V30 END CTAB
M  END
>  <Molecule Name>


>  <status>
-

>  <cas>
53-19-0

>  <name>
MITOTANE

>  <ID>
1144

>  <Smiles>
ClC(C(c(cc1)ccc1Cl)c(cccc1)c1Cl)Cl

$$$$

Actelion Java MolfileCreator 2.0

  0  0  0  0  0  0              0 V3000
M  V30 BEGIN CTAB
M  V30 COUNTS 21 22 0 0 0
M  V30 BEGIN ATOM
M  V30 1 O 7.7942 2.2499 0.0 0
M  V30 2 C 6.4951 1.4999 0.0 0
M  V30 3 N 5.1961 2.25 0.0 0
M  V30 4 C 6.4951 0.0 0.0 0 CFG=1
M  V30 5 C 5.1961 3.75 0.0 0
M  V30 6 N 7.7942 -0.75 0.0 0
M  V30 7 C 5.1961 -0.7499 0.0 0
M  V30 8 C 3.8971 4.4999 0.0 0
M  V30 9 C 6.4951 4.5 0.0 0
M  V30 10 C 7.7942 -2.25 0.0 0
M  V30 11 C 9.0932 0.0 0.0 0
M  V30 12 C 5.1961 -2.2499 0.0 0
M  V30 13 C 3.8971 5.9999 0.0 0
M  V30 14 C 2.598 3.7499 0.0 0
M  V30 15 C 6.4951 6.0 0.0 0
M  V30 16 C 7.7942 3.75 0.0 0
M  V30 17 C 6.4951 -3.0 0.0 0
M  V30 18 C 10.3923 -0.75 0.0 0
M  V30 19 C 5.1961 6.75 0.0 0
M  V30 20 C 11.6913 0.0 0.0 0
M  V30 21 C 12.9903 -0.75 0.0 0
M  V30 END ATOM
M  V30 BEGIN BOND
M  V30 1 2 1 2
M  V30 2 1 2 3
M  V30 3 1 4 2 CFG=1
M  V30 4 1 3 5
M  V30 5 1 4 6
M  V30 6 1 4 7
M  V30 7 2 5 8
M  V30 8 1 5 9
M  V30 9 1 6 10
M  V30 10 1 6 11
M  V30 11 1 7 12
M  V30 12 1 8 13
M  V30 13 1 8 14
M  V30 14 2 9 15
M  V30 15 1 9 16
M  V30 16 1 10 17
M  V30 17 1 11 18
M  V30 18 2 13 19
M  V30 19 1 18 20
M  V30 20 1 20 21
M  V30 21 1 12 17
M  V30 22 1 15 19
M  V30 END BOND
M  V30 BEGIN COLLECTION
M  V30 MDLV30/STERAC1 ATOMS=(1 4)
M  V30 END COLLECTION
M  V30 END CTAB
M  END
>  <Molecule Name>


>  <status>
-

>  <cas>
2180-92-9

>  <name>
BUPIVACAINE

>  <ID>
1145

>  <Smiles>
CCCCN(CCCC1)C1C(Nc1c(C)cccc1C)=O

$$$$

Actelion Java MolfileCreator 2.0

  0  0  0  0  0  0              0 V3000
M  V30 BEGIN CTAB
M  V30 COUNTS 10 9 0 0 0
M  V30 BEGIN ATOM
M  V30 1 Cl 6.4952 0.0 0.0 0
M  V30 2 C 5.1961 -0.75 0.0 0 CFG=2
M  V30 3 F 5.1961 -2.25 0.0 0
M  V30 4 C 3.8971 0.0 0.0 0
M  V30 5 F 4.6471 1.299 0.0 0
M  V30 6 F 3.1471 1.299 0.0 0
M  V30 7 O 2.598 -0.75 0.0 0
M  V30 8 C 1.299 0.0 0.0 0
M  V30 9 F 1.299 1.5 0.0 0
M  V30 10 F 0.0 -0.75 0.0 0
M  V30 END ATOM
M  V30 BEGIN BOND
M  V30 1 1 2 1 CFG=3
M  V30 2 1 2 3
M  V30 3 1 2 4
M  V30 4 1 4 5
M  V30 5 1 4 6
M  V30 6 1 4 7
M  V30 7 1 7 8
M  V30 8 1 8 9
M  V30 9 1 8 10
M  V30 END BOND
M  V30 BEGIN COLLECTION
M  V30 MDLV30/STERAC1 ATOMS=(1 2)
M  V30 END COLLECTION
M  V30 END CTAB
M  END
>  <Molecule Name>


>  <status>
DISCONTINUED

>  <cas>
13838-16-9

>  <name>
ENFLURANE

>  <ID>
1146

>  <Smiles>
FC(C(OC(F)F)(F)F)Cl

$$$$

Actelion Java MolfileCreator 2.0

  0  0  0  0  0  0              0 V3000
M  V30 BEGIN CTAB
M  V30 COUNTS 20 22 0 0 0
M  V30 BEGIN ATOM
M  V30 1 O 0.1893 -2.0297 0.0 0
M  V30 2 C 1.1674 -2.2376 0.0 0
M  V30 3 C 1.8365 -1.4945 0.0 0
M  V30 4 C 1.4764 -3.1887 0.0 0 CFG=2
M  V30 5 C 2.8147 -1.7024 0.0 0
M  V30 6 C 1.732 -0.5 0.0 0
M  V30 7 C 2.4546 -3.3966 0.0 0
M  V30 8 C 0.8073 -3.9318 0.0 0
M  V30 9 N 3.3147 -0.8364 0.0 0
M  V30 10 C 3.1237 -2.6534 0.0 0
M  V30 11 C 2.6455 -0.0932 0.0 0
M  V30 12 C 0.866 0.0 0.0 0
M  V30 13 N 1.1163 -4.8829 0.0 0
M  V30 14 C 2.8535 0.8848 0.0 0
M  V30 15 C 0.0 -0.5 0.0 0
M  V30 16 C 0.4472 -5.626 0.0 0
M  V30 17 C 2.0944 -5.0908 0.0 0
M  V30 18 C 0.7562 -6.5771 0.0 0
M  V30 19 C 2.4035 -6.0418 0.0 0
M  V30 20 O 1.7343 -6.785 0.0 0
M  V30 END ATOM
M  V30 BEGIN BOND
M  V30 1 2 1 2
M  V30 2 1 2 3
M  V30 3 1 4 2
M  V30 4 2 3 5
M  V30 5 1 3 6
M  V30 6 1 4 7
M  V30 7 1 4 8 CFG=3
M  V30 8 1 5 9
M  V30 9 1 5 10
M  V30 10 2 6 11
M  V30 11 1 6 12
M  V30 12 1 8 13
M  V30 13 1 11 14
M  V30 14 1 12 15
M  V30 15 1 13 16
M  V30 16 1 13 17
M  V30 17 1 16 18
M  V30 18 1 17 19
M  V30 19 1 18 20
M  V30 20 1 7 10
M  V30 21 1 9 11
M  V30 22 1 19 20
M  V30 END BOND
M  V30 BEGIN COLLECTION
M  V30 MDLV30/STERAC1 ATOMS=(1 4)
M  V30 END COLLECTION
M  V30 END CTAB
M  END
>  <Molecule Name>


>  <status>
-

>  <cas>
7416-34-4

>  <name>
MOLINDONE

>  <ID>
1147

>  <Smiles>
CCc1c(C)[nH]c(CCC2CN3CCOCC3)c1C2=O

$$$$

Actelion Java MolfileCreator 2.0

  0  0  0  0  0  0              0 V3000
M  V30 BEGIN CTAB
M  V30 COUNTS 20 23 0 0 0
M  V30 BEGIN ATOM
M  V30 1 Cl 3.4641 1.4999 0.0 0
M  V30 2 C 2.598 0.9999 0.0 0
M  V30 3 C 1.732 1.4999 0.0 0
M  V30 4 C 2.598 0.0 0.0 0
M  V30 5 C 0.866 0.9999 0.0 0
M  V30 6 C 1.732 -0.5 0.0 0
M  V30 7 C 0.866 0.0 0.0 0
M  V30 8 C 0.0 -0.5 0.0 0 CFG=2
M  V30 9 O 0.8386 -1.0446 0.0 0
M  V30 10 N -0.9135 -0.0932 0.0 0
M  V30 11 C -0.1045 -1.4945 0.0 0
M  V30 12 C -1.5826 -0.8364 0.0 0
M  V30 13 C -1.4135 0.7727 0.0 0
M  V30 14 C -1.0826 -1.7024 0.0 0
M  V30 15 C 0.5646 -2.2376 0.0 0
M  V30 16 N -2.4962 -0.4296 0.0 0
M  V30 17 C -2.3916 0.5648 0.0 0
M  V30 18 C -1.3916 -2.6534 0.0 0
M  V30 19 C 0.2555 -3.1887 0.0 0
M  V30 20 C -0.7225 -3.3966 0.0 0
M  V30 END ATOM
M  V30 BEGIN BOND
M  V30 1 1 1 2
M  V30 2 2 2 3
M  V30 3 1 2 4
M  V30 4 1 3 5
M  V30 5 2 4 6
M  V30 6 2 5 7
M  V30 7 1 8 7
M  V30 8 1 8 9 CFG=3
M  V30 9 1 8 10
M  V30 10 1 8 11
M  V30 11 1 10 12
M  V30 12 1 10 13
M  V30 13 2 11 14
M  V30 14 1 11 15
M  V30 15 2 12 16
M  V30 16 1 13 17
M  V30 17 1 14 18
M  V30 18 2 15 19
M  V30 19 2 18 20
M  V30 20 1 6 7
M  V30 21 1 12 14
M  V30 22 1 16 17
M  V30 23 1 19 20
M  V30 END BOND
M  V30 BEGIN COLLECTION
M  V30 MDLV30/STERAC1 ATOMS=(1 8)
M  V30 END COLLECTION
M  V30 END CTAB
M  END
>  <Molecule Name>


>  <status>
DISCONTINUED

>  <cas>
22232-71-9

>  <name>
MAZINDOL

>  <ID>
1148

>  <Smiles>
OC(c1c2cccc1)(c(cc1)ccc1Cl)N1C2=NCC1

$$$$

Actelion Java MolfileCreator 2.0

  0  0  0  0  0  0              0 V3000
M  V30 BEGIN CTAB
M  V30 COUNTS 24 26 0 0 0
M  V30 BEGIN ATOM
M  V30 1 Cl 1.299 0.0 0.0 0
M  V30 2 C 0.0 -0.75 0.0 0
M  V30 3 C -1.299 0.0 0.0 0
M  V30 4 C 0.0 -2.2499 0.0 0
M  V30 5 S -1.299 1.5 0.0 0
M  V30 6 C -2.598 -0.7499 0.0 0
M  V30 7 C -1.299 -2.9999 0.0 0
M  V30 8 O 0.2009 1.5 0.0 0
M  V30 9 O -2.799 1.5 0.0 0
M  V30 10 N -1.299 3.0 0.0 0
M  V30 11 C -2.598 -2.2499 0.0 0
M  V30 12 N -1.299 -4.4999 0.0 0
M  V30 13 C -3.8971 -2.9999 0.0 0
M  V30 14 C -2.598 -5.2499 0.0 0 CFG=1
M  V30 15 O -5.1961 -2.2499 0.0 0
M  V30 16 N -3.8971 -4.4999 0.0 0
M  V30 17 C -2.598 -6.7499 0.0 0
M  V30 18 C -5.1961 -5.2499 0.0 0
M  V30 19 C -6.4951 -4.4999 0.0 0
M  V30 20 C -5.1961 -6.7499 0.0 0
M  V30 21 C -7.7942 -5.2499 0.0 0
M  V30 22 C -6.4951 -2.9999 0.0 0
M  V30 23 C -6.4951 -7.4999 0.0 0
M  V30 24 C -7.7942 -6.7499 0.0 0
M  V30 END ATOM
M  V30 BEGIN BOND
M  V30 1 1 1 2
M  V30 2 2 2 3
M  V30 3 1 2 4
M  V30 4 1 3 5
M  V30 5 1 3 6
M  V30 6 2 4 7
M  V30 7 2 5 8
M  V30 8 2 5 9
M  V30 9 1 5 10
M  V30 10 2 6 11
M  V30 11 1 7 12
M  V30 12 1 11 13
M  V30 13 1 14 12
M  V30 14 2 13 15
M  V30 15 1 13 16
M  V30 16 1 14 17 CFG=3
M  V30 17 1 16 18
M  V30 18 2 18 19
M  V30 19 1 18 20
M  V30 20 1 19 21
M  V30 21 1 19 22
M  V30 22 2 20 23
M  V30 23 2 21 24
M  V30 24 1 7 11
M  V30 25 1 14 16
M  V30 26 1 23 24
M  V30 END BOND
M  V30 BEGIN COLLECTION
M  V30 MDLV30/STERAC1 ATOMS=(1 14)
M  V30 END COLLECTION
M  V30 END CTAB
M  END
>  <Molecule Name>


>  <status>
-

>  <cas>
17560-51-9

>  <name>
METOLAZONE

>  <ID>
1149

>  <Smiles>
CC(Nc(c1c2)cc(Cl)c2S(N)(=O)=O)N(c2c(C)cccc2)C1=O

$$$$

Actelion Java MolfileCreator 2.0

  0  0  0  0  0  0              0 V3000
M  V30 BEGIN CTAB
M  V30 COUNTS 25 26 0 0 0
M  V30 BEGIN ATOM
M  V30 1 O 6.0621 0.0 0.0 0
M  V30 2 C 5.1961 -0.5 0.0 0
M  V30 3 N 5.0711 -1.6249 0.0 0
M  V30 4 C 4.3301 0.0 0.0 0 CFG=2
M  V30 5 C 4.3301 0.9999 0.0 0
M  V30 6 C 4.3301 -1.0 0.0 0
M  V30 7 C 3.4641 -0.5 0.0 0
M  V30 8 N 5.1961 1.4999 0.0 0
M  V30 9 C 3.4641 1.5 0.0 0
M  V30 10 C 3.4641 -1.5 0.0 0
M  V30 11 C 5.3897 -1.5215 0.0 0
M  V30 12 C 2.598 0.0 0.0 0
M  V30 13 C 5.1961 2.4999 0.0 0
M  V30 14 C 3.4641 2.5 0.0 0
M  V30 15 C 3.4641 -2.5 0.0 0
M  V30 16 C 5.1961 -2.4999 0.0 0
M  V30 17 N 1.732 -0.5 0.0 0
M  V30 18 C 4.3301 2.9999 0.0 0
M  V30 19 C 4.3301 -3.0 0.0 0
M  V30 20 C 1.732 -1.5 0.0 0
M  V30 21 C 0.866 0.0 0.0 0
M  V30 22 C 0.866 -2.0 0.0 0
M  V30 23 C 2.598 -1.9999 0.0 0
M  V30 24 C 0.866 1.0 0.0 0
M  V30 25 C 0.0 -0.5 0.0 0
M  V30 END ATOM
M  V30 BEGIN BOND
M  V30 1 2 1 2
M  V30 2 1 2 3
M  V30 3 1 4 2
M  V30 4 1 4 5
M  V30 5 1 4 6 CFG=1
M  V30 6 1 4 7
M  V30 7 2 5 8
M  V30 8 1 5 9
M  V30 9 2 6 10
M  V30 10 1 6 11
M  V30 11 1 7 12
M  V30 12 1 8 13
M  V30 13 2 9 14
M  V30 14 1 10 15
M  V30 15 2 11 16
M  V30 16 1 12 17
M  V30 17 2 13 18
M  V30 18 2 15 19
M  V30 19 1 17 20
M  V30 20 1 17 21
M  V30 21 1 20 22
M  V30 22 1 20 23
M  V30 23 1 21 24
M  V30 24 1 21 25
M  V30 25 1 14 18
M  V30 26 1 16 19
M  V30 END BOND
M  V30 BEGIN COLLECTION
M  V30 MDLV30/STERAC1 ATOMS=(1 4)
M  V30 END COLLECTION
M  V30 END CTAB
M  END
>  <Molecule Name>


>  <status>
-

>  <cas>
3737-09-5

>  <name>
DISOPYRAMIDE

>  <ID>
1150

>  <Smiles>
CC(C)N(CCC(C(N)=O)(c1ccccc1)c1ncccc1)C(C)C

$$$$

Actelion Java MolfileCreator 2.0

  0  0  0  0  0  0              0 V3000
M  V30 BEGIN CTAB
M  V30 COUNTS 25 27 0 0 0
M  V30 BEGIN ATOM
M  V30 1 Cl 0.866 0.9999 0.0 0
M  V30 2 C 1.732 1.4999 0.0 0
M  V30 3 C 2.598 1.0 0.0 0
M  V30 4 C 1.732 2.4999 0.0 0
M  V30 5 C 3.4641 1.5 0.0 0
M  V30 6 C 2.598 0.0 0.0 0 CFG=1
M  V30 7 C 2.598 3.0 0.0 0
M  V30 8 C 3.4641 2.5 0.0 0
M  V30 9 O 1.732 -0.5 0.0 0
M  V30 10 C 3.4641 -0.5 0.0 0
M  V30 11 Cl 2.598 4.0 0.0 0
M  V30 12 C 0.866 0.0 0.0 0
M  V30 13 N 4.3301 0.0 0.0 0
M  V30 14 C 0.0 -0.5 0.0 0
M  V30 15 C 5.2436 -0.4067 0.0 0
M  V30 16 C 4.4346 0.9945 0.0 0
M  V30 17 C -0.866 0.0 0.0 0
M  V30 18 C 0.0 -1.4999 0.0 0
M  V30 19 N 5.9128 0.3364 0.0 0
M  V30 20 C 5.4128 1.2024 0.0 0
M  V30 21 Cl -0.866 1.0 0.0 0
M  V30 22 C -1.732 -0.4999 0.0 0
M  V30 23 C -0.866 -1.9999 0.0 0
M  V30 24 C -1.732 -1.4999 0.0 0
M  V30 25 Cl -2.598 -1.9999 0.0 0
M  V30 END ATOM
M  V30 BEGIN BOND
M  V30 1 1 1 2
M  V30 2 2 2 3
M  V30 3 1 2 4
M  V30 4 1 3 5
M  V30 5 1 6 3
M  V30 6 2 4 7
M  V30 7 2 5 8
M  V30 8 1 6 9 CFG=3
M  V30 9 1 6 10
M  V30 10 1 7 11
M  V30 11 1 9 12
M  V30 12 1 10 13
M  V30 13 1 12 14
M  V30 14 1 13 15
M  V30 15 1 13 16
M  V30 16 2 14 17
M  V30 17 1 14 18
M  V30 18 2 15 19
M  V30 19 2 16 20
M  V30 20 1 17 21
M  V30 21 1 17 22
M  V30 22 2 18 23
M  V30 23 2 22 24
M  V30 24 1 24 25
M  V30 25 1 7 8
M  V30 26 1 19 20
M  V30 27 1 23 24
M  V30 END BOND
M  V30 BEGIN COLLECTION
M  V30 MDLV30/STERAC1 ATOMS=(1 6)
M  V30 END COLLECTION
M  V30 END CTAB
M  END
>  <Molecule Name>


>  <status>
-

>  <cas>
22916-47-8

>  <name>
MICONAZOLE

>  <ID>
1151

>  <Smiles>
Clc1cc(Cl)c(COC(Cn2cncc2)c(ccc(Cl)c2)c2Cl)cc1

$$$$

Actelion Java MolfileCreator 2.0

  0  0  0  0  0  0              0 V3000
M  V30 BEGIN CTAB
M  V30 COUNTS 15 15 0 0 0
M  V30 BEGIN ATOM
M  V30 1 O 4.3301 3.0 0.0 0
M  V30 2 C 5.1961 2.5 0.0 0
M  V30 3 O 6.0621 3.0 0.0 0 CHG=-1
M  V30 4 C 5.1961 1.5 0.0 0 CFG=1
M  V30 5 C 4.3301 1.0 0.0 0
M  V30 6 C 6.0621 1.0 0.0 0
M  V30 7 C 3.4641 1.5 0.0 0
M  V30 8 C 4.3301 0.0 0.0 0
M  V30 9 C 2.598 0.9999 0.0 0
M  V30 10 C 3.4641 -0.4999 0.0 0
M  V30 11 C 2.598 0.0 0.0 0
M  V30 12 C 1.732 -0.5 0.0 0
M  V30 13 C 0.866 0.0 0.0 0
M  V30 14 C 0.866 1.0 0.0 0
M  V30 15 C 0.0 -0.5 0.0 0
M  V30 END ATOM
M  V30 BEGIN BOND
M  V30 1 2 1 2
M  V30 2 1 2 3
M  V30 3 1 4 2
M  V30 4 1 4 5
M  V30 5 1 4 6 CFG=3
M  V30 6 2 5 7
M  V30 7 1 5 8
M  V30 8 1 7 9
M  V30 9 2 8 10
M  V30 10 2 9 11
M  V30 11 1 11 12
M  V30 12 1 12 13
M  V30 13 1 13 14
M  V30 14 1 13 15
M  V30 15 1 10 11
M  V30 END BOND
M  V30 BEGIN COLLECTION
M  V30 MDLV30/STERAC1 ATOMS=(1 4)
M  V30 END COLLECTION
M  V30 END CTAB
M  END
>  <Molecule Name>


>  <status>
-

>  <cas>
15687-27-1

>  <name>
IBUPROFEN

>  <ID>
1152

>  <Smiles>
CC(C)Cc1ccc(C(C)C([O-])=O)cc1

$$$$

Actelion Java MolfileCreator 2.0

  0  0  0  0  0  0              0 V3000
M  V30 BEGIN CTAB
M  V30 COUNTS 35 38 0 0 0
M  V30 BEGIN ATOM
M  V30 1 Cl 4.3301 -5.0 0.0 0
M  V30 2 C 3.4641 -4.5 0.0 0
M  V30 3 C 3.4641 -3.5 0.0 0
M  V30 4 C 2.598 -5.0 0.0 0
M  V30 5 C 2.598 -3.0 0.0 0
M  V30 6 C 1.732 -4.5 0.0 0
M  V30 7 C 1.732 -3.5 0.0 0
M  V30 8 C 2.598 -2.0 0.0 0 CFG=1
M  V30 9 C 0.7809 -4.809 0.0 0
M  V30 10 C 0.7809 -3.1909 0.0 0
M  V30 11 O 1.732 -1.5 0.0 0
M  V30 12 C 3.4641 -1.5 0.0 0
M  V30 13 C 0.1932 -3.9999 0.0 0
M  V30 14 C 0.4719 -5.76 0.0 0
M  V30 15 C 0.3742 -2.2774 0.0 0
M  V30 16 N 3.4641 -0.5 0.0 0
M  V30 17 C -0.8013 -3.8954 0.0 0
M  V30 18 C 1.1411 -6.5032 0.0 0
M  V30 19 C -0.6202 -2.1729 0.0 0
M  V30 20 C 4.3301 0.0 0.0 0
M  V30 21 C 2.598 0.0 0.0 0
M  V30 22 C -1.208 -2.9819 0.0 0
M  V30 23 C 0.832 -7.4542 0.0 0
M  V30 24 C 2.1192 -6.2953 0.0 0
M  V30 25 C 5.1961 -0.5 0.0 0
M  V30 26 C 1.732 -0.5 0.0 0
M  V30 27 Cl -2.2025 -2.8773 0.0 0
M  V30 28 C 1.5012 -8.1974 0.0 0
M  V30 29 C 2.7883 -7.0384 0.0 0
M  V30 30 C 6.0621 0.0 0.0 0
M  V30 31 C 0.866 0.0 0.0 0
M  V30 32 C 2.4793 -7.9895 0.0 0
M  V30 33 C 6.9282 -0.5 0.0 0
M  V30 34 C 0.0 -0.5 0.0 0
M  V30 35 Cl 3.1484 -8.7326 0.0 0
M  V30 END ATOM
M  V30 BEGIN BOND
M  V30 1 1 1 2
M  V30 2 2 2 3
M  V30 3 1 2 4
M  V30 4 1 3 5
M  V30 5 2 4 6
M  V30 6 2 5 7
M  V30 7 1 8 5
M  V30 8 1 6 9
M  V30 9 1 7 10
M  V30 10 1 8 11 CFG=1
M  V30 11 1 8 12
M  V30 12 1 9 13
M  V30 13 2 9 14
M  V30 14 1 10 15
M  V30 15 1 12 16
M  V30 16 1 13 17
M  V30 17 1 14 18
M  V30 18 2 15 19
M  V30 19 1 16 20
M  V30 20 1 16 21
M  V30 21 2 17 22
M  V30 22 2 18 23
M  V30 23 1 18 24
M  V30 24 1 20 25
M  V30 25 1 21 26
M  V30 26 1 22 27
M  V30 27 1 23 28
M  V30 28 2 24 29
M  V30 29 1 25 30
M  V30 30 1 26 31
M  V30 31 2 28 32
M  V30 32 1 30 33
M  V30 33 1 31 34
M  V30 34 1 32 35
M  V30 35 1 6 7
M  V30 36 2 10 13
M  V30 37 1 19 22
M  V30 38 1 29 32
M  V30 END BOND
M  V30 BEGIN COLLECTION
M  V30 MDLV30/STERAC1 ATOMS=(1 8)
M  V30 END COLLECTION
M  V30 END CTAB
M  END
>  <Molecule Name>


>  <status>
-

>  <cas>
82186-77-4

>  <name>
LUMEFANTRINE

>  <ID>
1153

>  <Smiles>
CCCCN(CCCC)CC(c1c(-c(ccc(Cl)c2)c2/C2=C/c(cc3)ccc3Cl)c2cc(Cl)c1)O

$$$$

Actelion Java MolfileCreator 2.0

  0  0  0  0  0  0              0 V3000
M  V30 BEGIN CTAB
M  V30 COUNTS 21 23 0 0 0
M  V30 BEGIN ATOM
M  V30 1 Cl 0.866 0.0 0.0 0
M  V30 2 C 0.0 -0.5 0.0 0
M  V30 3 C -0.866 0.0 0.0 0
M  V30 4 C 0.0 -1.4999 0.0 0
M  V30 5 C -0.866 1.0 0.0 0
M  V30 6 C -1.732 -0.4999 0.0 0
M  V30 7 C -0.866 -1.9999 0.0 0
M  V30 8 N 0.0349 1.4338 0.0 0
M  V30 9 C -1.7669 1.4338 0.0 0
M  V30 10 C -1.732 -1.4999 0.0 0
M  V30 11 C 0.2574 2.4088 0.0 0 CFG=1
M  V30 12 C -1.9895 2.4088 0.0 0
M  V30 13 C -2.5 0.7537 0.0 0
M  V30 14 O 1.2323 2.6313 0.0 0
M  V30 15 C -0.366 3.1906 0.0 0
M  V30 16 N -1.366 3.1906 0.0 0
M  V30 17 C -2.945 2.7035 0.0 0
M  V30 18 C -3.4556 1.0484 0.0 0
M  V30 19 O 0.0678 4.0916 0.0 0
M  V30 20 C -3.6781 2.0233 0.0 0
M  V30 21 Cl -4.1886 0.3682 0.0 0
M  V30 END ATOM
M  V30 BEGIN BOND
M  V30 1 1 1 2
M  V30 2 2 2 3
M  V30 3 1 2 4
M  V30 4 1 3 5
M  V30 5 1 3 6
M  V30 6 2 4 7
M  V30 7 2 5 8
M  V30 8 1 5 9
M  V30 9 2 6 10
M  V30 10 1 11 8
M  V30 11 2 9 12
M  V30 12 1 9 13
M  V30 13 1 11 14 CFG=3
M  V30 14 1 11 15
M  V30 15 1 12 16
M  V30 16 1 12 17
M  V30 17 2 13 18
M  V30 18 2 15 19
M  V30 19 2 17 20
M  V30 20 1 18 21
M  V30 21 1 7 10
M  V30 22 1 15 16
M  V30 23 1 18 20
M  V30 END BOND
M  V30 BEGIN COLLECTION
M  V30 MDLV30/STERAC1 ATOMS=(1 11)
M  V30 END COLLECTION
M  V30 END CTAB
M  END
>  <Molecule Name>


>  <status>
-

>  <cas>
846-49-1

>  <name>
LORAZEPAM

>  <ID>
1154

>  <Smiles>
OC1N=C(c(cccc2)c2Cl)c(cc(cc2)Cl)c2NC1=O

$$$$
_c001
Actelion Java MolfileCreator 2.0

  0  0  0  0  0  0              0 V3000
M  V30 BEGIN CTAB
M  V30 COUNTS 22 23 0 0 0
M  V30 BEGIN ATOM
M  V30 1 O 12.9903 -0.75 0.0 0
M  V30 2 C 11.6913 0.0 0.0 0
M  V30 3 C 11.6913 1.4999 0.0 0
M  V30 4 C 10.3923 -0.75 0.0 0
M  V30 5 O 12.9903 2.2499 0.0 0
M  V30 6 C 10.3923 2.2499 0.0 0
M  V30 7 C 9.0932 0.0 0.0 0
M  V30 8 C 9.0932 1.5 0.0 0
M  V30 9 C 7.7942 -0.75 0.0 0
M  V30 10 C 6.4951 0.0 0.0 0
M  V30 11 N 5.1961 -0.75 0.0 0
M  V30 12 C 3.8971 0.0 0.0 0 CFG=2
M  V30 13 C 2.598 -0.75 0.0 0
M  V30 14 C 3.8971 1.5 0.0 0
M  V30 15 C 1.299 0.0 0.0 0
M  V30 16 C 0.0 -0.75 0.0 0
M  V30 17 C -1.299 0.0 0.0 0
M  V30 18 C 0.0 -2.2499 0.0 0
M  V30 19 C -2.598 -0.7499 0.0 0
M  V30 20 C -1.299 -2.9999 0.0 0
M  V30 21 C -2.598 -2.2499 0.0 0
M  V30 22 O -3.8971 -2.9999 0.0 0
M  V30 END ATOM
M  V30 BEGIN BOND
M  V30 1 1 1 2
M  V30 2 2 2 3
M  V30 3 1 2 4
M  V30 4 1 3 5
M  V30 5 1 3 6
M  V30 6 2 4 7
M  V30 7 2 6 8
M  V30 8 1 7 9
M  V30 9 1 9 10
M  V30 10 1 10 11
M  V30 11 1 12 11 CFG=3
M  V30 12 1 12 13
M  V30 13 1 12 14
M  V30 14 1 13 15
M  V30 15 1 15 16
M  V30 16 2 16 17
M  V30 17 1 16 18
M  V30 18 1 17 19
M  V30 19 2 18 20
M  V30 20 2 19 21
M  V30 21 1 21 22
M  V30 22 1 7 8
M  V30 23 1 20 21
M  V30 END BOND
M  V30 BEGIN COLLECTION
M  V30 MDLV30/STERAC1 ATOMS=(1 12)
M  V30 END COLLECTION
M  V30 END CTAB
M  END
>  <Molecule Name>
_c001

>  <status>
-

>  <cas>
34368-04-2

>  <name>
DOBUTAMINE

>  <ID>
1155

>  <Smiles>
CC(CCc(cc1)ccc1O)NCCc(cc1)cc(O)c1O

$$$$

Actelion Java MolfileCreator 2.0

  0  0  0  0  0  0              0 V3000
M  V30 BEGIN CTAB
M  V30 COUNTS 14 14 0 0 0
M  V30 BEGIN ATOM
M  V30 1 Cl 3.8971 6.0 0.0 0
M  V30 2 C 3.8971 4.5 0.0 0
M  V30 3 C 2.598 3.75 0.0 0
M  V30 4 C 5.1961 3.75 0.0 0
M  V30 5 C 2.598 2.25 0.0 0
M  V30 6 C 5.1961 2.25 0.0 0
M  V30 7 C 3.8971 1.5 0.0 0
M  V30 8 C 3.8971 0.0 0.0 0 CFG=2
M  V30 9 C 5.1961 -0.75 0.0 0
M  V30 10 C 2.598 -0.75 0.0 0
M  V30 11 N 6.4951 0.0 0.0 0
M  V30 12 C 1.299 0.0 0.0 0
M  V30 13 O 1.299 1.5 0.0 0
M  V30 14 O 0.0 -0.75 0.0 0 CHG=-1
M  V30 END ATOM
M  V30 BEGIN BOND
M  V30 1 1 1 2
M  V30 2 2 2 3
M  V30 3 1 2 4
M  V30 4 1 3 5
M  V30 5 2 4 6
M  V30 6 2 5 7
M  V30 7 1 8 7
M  V30 8 1 8 9 CFG=3
M  V30 9 1 8 10
M  V30 10 1 9 11
M  V30 11 1 10 12
M  V30 12 2 12 13
M  V30 13 1 12 14
M  V30 14 1 6 7
M  V30 END BOND
M  V30 BEGIN COLLECTION
M  V30 MDLV30/STERAC1 ATOMS=(1 8)
M  V30 END COLLECTION
M  V30 END CTAB
M  END
>  <Molecule Name>


>  <status>
-

>  <cas>
1134-47-0

>  <name>
BACLOFEN

>  <ID>
1156

>  <Smiles>
NCC(CC([O-])=O)c(cc1)ccc1Cl

$$$$

Actelion Java MolfileCreator 2.0

  0  0  0  0  0  0              0 V3000
M  V30 BEGIN CTAB
M  V30 COUNTS 21 23 0 0 0
M  V30 BEGIN ATOM
M  V30 1 Cl 0.866 0.0 0.0 0
M  V30 2 C 0.0 -0.5 0.0 0
M  V30 3 C -0.866 0.0 0.0 0
M  V30 4 C 0.0 -1.4999 0.0 0
M  V30 5 C -1.732 -0.4999 0.0 0
M  V30 6 C -0.866 -1.9999 0.0 0
M  V30 7 C -2.5138 0.1234 0.0 0
M  V30 8 C -1.732 -1.4999 0.0 0
M  V30 9 N -3.4888 -0.099 0.0 0
M  V30 10 C -2.2913 1.0984 0.0 0
M  V30 11 N -2.5138 -2.1234 0.0 0
M  V30 12 C -3.9226 -0.9999 0.0 0 CFG=2
M  V30 13 C -1.3357 1.3931 0.0 0
M  V30 14 C -3.0244 1.7785 0.0 0
M  V30 15 C -3.4888 -1.9009 0.0 0
M  V30 16 C -2.2913 -3.0984 0.0 0
M  V30 17 O -4.9226 -0.9999 0.0 0
M  V30 18 C -1.1132 2.3681 0.0 0
M  V30 19 C -2.8018 2.7535 0.0 0
M  V30 20 O -4.1123 -2.6828 0.0 0
M  V30 21 C -1.8463 3.0482 0.0 0
M  V30 END ATOM
M  V30 BEGIN BOND
M  V30 1 1 1 2
M  V30 2 2 2 3
M  V30 3 1 2 4
M  V30 4 1 3 5
M  V30 5 2 4 6
M  V30 6 1 5 7
M  V30 7 2 5 8
M  V30 8 2 7 9
M  V30 9 1 7 10
M  V30 10 1 8 11
M  V30 11 1 12 9
M  V30 12 2 10 13
M  V30 13 1 10 14
M  V30 14 1 11 15
M  V30 15 1 11 16
M  V30 16 1 12 17 CFG=3
M  V30 17 1 13 18
M  V30 18 2 14 19
M  V30 19 2 15 20
M  V30 20 2 18 21
M  V30 21 1 6 8
M  V30 22 1 12 15
M  V30 23 1 19 21
M  V30 END BOND
M  V30 BEGIN COLLECTION
M  V30 MDLV30/STERAC1 ATOMS=(1 12)
M  V30 END COLLECTION
M  V30 END CTAB
M  END
>  <Molecule Name>


>  <status>
-

>  <cas>
846-50-4

>  <name>
TEMAZEPAM

>  <ID>
1157

>  <Smiles>
CN(c(ccc(Cl)c1)c1C(c1ccccc1)=NC1O)C1=O

$$$$

Actelion Java MolfileCreator 2.0

  0  0  0  0  0  0              0 V3000
M  V30 BEGIN CTAB
M  V30 COUNTS 19 19 0 0 0
M  V30 BEGIN ATOM
M  V30 1 O 5.1961 1.5 0.0 0
M  V30 2 C 6.0621 1.0 0.0 0
M  V30 3 C 4.3301 1.0 0.0 0
M  V30 4 C 6.0621 0.0 0.0 0
M  V30 5 C 6.9282 1.4999 0.0 0
M  V30 6 C 3.4641 1.5 0.0 0
M  V30 7 O 5.1961 -0.5 0.0 0
M  V30 8 C 6.9282 -0.5 0.0 0
M  V30 9 C 7.7942 1.0 0.0 0
M  V30 10 C 2.598 1.0 0.0 0
M  V30 11 C 4.3301 0.0 0.0 0
M  V30 12 C 7.7942 0.0 0.0 0
M  V30 13 C 3.4641 -0.5 0.0 0 CFG=1
M  V30 14 O 3.4641 -1.5 0.0 0
M  V30 15 C 2.598 0.0 0.0 0
M  V30 16 N 1.732 -0.5 0.0 0
M  V30 17 C 0.866 0.0 0.0 0
M  V30 18 C 0.866 1.0 0.0 0
M  V30 19 C 0.0 -0.5 0.0 0
M  V30 END ATOM
M  V30 BEGIN BOND
M  V30 1 1 1 2
M  V30 2 1 1 3
M  V30 3 2 2 4
M  V30 4 1 2 5
M  V30 5 1 3 6
M  V30 6 1 4 7
M  V30 7 1 4 8
M  V30 8 2 5 9
M  V30 9 2 6 10
M  V30 10 1 7 11
M  V30 11 2 8 12
M  V30 12 1 13 11
M  V30 13 1 13 14 CFG=1
M  V30 14 1 13 15
M  V30 15 1 15 16
M  V30 16 1 16 17
M  V30 17 1 17 18
M  V30 18 1 17 19
M  V30 19 1 9 12
M  V30 END BOND
M  V30 BEGIN COLLECTION
M  V30 MDLV30/STERAC1 ATOMS=(1 13)
M  V30 END COLLECTION
M  V30 END CTAB
M  END
>  <Molecule Name>


>  <status>
DISCONTINUED

>  <cas>
6452-71-7

>  <name>
OXPRENOLOL

>  <ID>
1158

>  <Smiles>
CC(C)NCC(COc(cccc1)c1OCC=C)O

$$$$

Actelion Java MolfileCreator 2.0

  0  0  0  0  0  0              0 V3000
M  V30 BEGIN CTAB
M  V30 COUNTS 17 18 0 0 0
M  V30 BEGIN ATOM
M  V30 1 O -0.866 1.0 0.0 0
M  V30 2 C -0.866 0.0 0.0 0
M  V30 3 N -1.732 -0.4999 0.0 0
M  V30 4 C 0.0 -0.5 0.0 0 CFG=2
M  V30 5 C -1.732 -1.4999 0.0 0
M  V30 6 C 0.866 -1.0 0.0 0
M  V30 7 C 0.0 -1.5 0.0 0
M  V30 8 C 0.866 0.0 0.0 0
M  V30 9 O -2.598 -1.9999 0.0 0
M  V30 10 C -0.866 -1.9999 0.0 0
M  V30 11 C 0.866 -2.0 0.0 0
M  V30 12 C 1.732 -0.5 0.0 0
M  V30 13 C 0.866 0.9999 0.0 0
M  V30 14 C 1.732 -2.5 0.0 0
M  V30 15 C 2.598 -1.0 0.0 0
M  V30 16 C 2.598 -2.0 0.0 0
M  V30 17 N 3.4641 -2.5 0.0 0
M  V30 END ATOM
M  V30 BEGIN BOND
M  V30 1 2 1 2
M  V30 2 1 2 3
M  V30 3 1 4 2
M  V30 4 1 3 5
M  V30 5 1 4 6 CFG=3
M  V30 6 1 4 7
M  V30 7 1 4 8
M  V30 8 2 5 9
M  V30 9 1 5 10
M  V30 10 2 6 11
M  V30 11 1 6 12
M  V30 12 1 8 13
M  V30 13 1 11 14
M  V30 14 2 12 15
M  V30 15 2 14 16
M  V30 16 1 16 17
M  V30 17 1 7 10
M  V30 18 1 15 16
M  V30 END BOND
M  V30 BEGIN COLLECTION
M  V30 MDLV30/STERAC1 ATOMS=(1 4)
M  V30 END COLLECTION
M  V30 END CTAB
M  END
>  <Molecule Name>


>  <status>
DISCONTINUED

>  <cas>
125-84-8

>  <name>
AMINOGLUTETHIMIDE

>  <ID>
1159

>  <Smiles>
CCC(CCC(N1)=O)(c(cc2)ccc2N)C1=O

$$$$

Actelion Java MolfileCreator 2.0

  0  0  0  0  0  0              0 V3000
M  V30 BEGIN CTAB
M  V30 COUNTS 25 25 0 0 0
M  V30 BEGIN ATOM
M  V30 1 O 3.8971 -4.5 0.0 0
M  V30 2 C 5.1961 -5.25 0.0 0
M  V30 3 O 6.4951 -4.5 0.0 0
M  V30 4 C 5.1961 -6.75 0.0 0
M  V30 5 C 6.4951 -3.0 0.0 0
M  V30 6 C 3.6961 -6.75 0.0 0
M  V30 7 C 5.1961 -8.25 0.0 0
M  V30 8 C 6.6961 -6.75 0.0 0
M  V30 9 C 7.7942 -2.25 0.0 0
M  V30 10 C 5.1961 -2.25 0.0 0
M  V30 11 O 9.0932 -3.0 0.0 0
M  V30 12 C 7.7942 -0.75 0.0 0
M  V30 13 C 5.1961 -0.75 0.0 0
M  V30 14 C 10.3923 -2.25 0.0 0
M  V30 15 C 6.4951 0.0 0.0 0
M  V30 16 C 3.8971 0.0 0.0 0 CFG=1
M  V30 17 O 10.3923 -0.75 0.0 0
M  V30 18 C 11.6913 -3.0 0.0 0
M  V30 19 O 3.8971 1.5 0.0 0
M  V30 20 C 2.598 -0.75 0.0 0
M  V30 21 C 10.9413 -4.299 0.0 0
M  V30 22 C 12.9903 -3.75 0.0 0
M  V30 23 C 12.4413 -1.7009 0.0 0
M  V30 24 N 1.299 0.0 0.0 0
M  V30 25 C 0.0 -0.75 0.0 0
M  V30 END ATOM
M  V30 BEGIN BOND
M  V30 1 2 1 2
M  V30 2 1 2 3
M  V30 3 1 2 4
M  V30 4 1 3 5
M  V30 5 1 4 6
M  V30 6 1 4 7
M  V30 7 1 4 8
M  V30 8 2 5 9
M  V30 9 1 5 10
M  V30 10 1 9 11
M  V30 11 1 9 12
M  V30 12 2 10 13
M  V30 13 1 11 14
M  V30 14 2 12 15
M  V30 15 1 16 13
M  V30 16 2 14 17
M  V30 17 1 14 18
M  V30 18 1 16 19 CFG=3
M  V30 19 1 16 20
M  V30 20 1 18 21
M  V30 21 1 18 22
M  V30 22 1 18 23
M  V30 23 1 20 24
M  V30 24 1 24 25
M  V30 25 1 13 15
M  V30 END BOND
M  V30 BEGIN COLLECTION
M  V30 MDLV30/STERAC1 ATOMS=(1 16)
M  V30 END COLLECTION
M  V30 END CTAB
M  END
>  <Molecule Name>


>  <status>
DISCONTINUED

>  <cas>
52365-63-6

>  <name>
DIPIVEFRIN

>  <ID>
1160

>  <Smiles>
CC(C)(C)C(Oc(ccc(C(CNC)O)c1)c1OC(C(C)(C)C)=O)=O

$$$$

Actelion Java MolfileCreator 2.0

  0  0  0  0  0  0              0 V3000
M  V30 BEGIN CTAB
M  V30 COUNTS 19 19 0 0 0
M  V30 BEGIN ATOM
M  V30 1 O 10.3923 1.4999 0.0 0
M  V30 2 C 9.5262 0.9999 0.0 0
M  V30 3 N 9.5262 0.0 0.0 0
M  V30 4 C 8.6602 1.4999 0.0 0
M  V30 5 C 7.7942 0.9999 0.0 0
M  V30 6 C 6.9282 1.4999 0.0 0
M  V30 7 C 7.7942 0.0 0.0 0
M  V30 8 C 6.0621 0.9999 0.0 0
M  V30 9 C 6.9282 -0.5 0.0 0
M  V30 10 C 6.0621 0.0 0.0 0
M  V30 11 O 5.1961 -0.5 0.0 0
M  V30 12 C 4.3301 0.0 0.0 0
M  V30 13 C 3.4641 -0.5 0.0 0 CFG=1
M  V30 14 O 3.4641 -1.5 0.0 0
M  V30 15 C 2.598 0.0 0.0 0
M  V30 16 N 1.732 -0.5 0.0 0
M  V30 17 C 0.866 0.0 0.0 0
M  V30 18 C 0.866 1.0 0.0 0
M  V30 19 C 0.0 -0.5 0.0 0
M  V30 END ATOM
M  V30 BEGIN BOND
M  V30 1 2 1 2
M  V30 2 1 2 3
M  V30 3 1 2 4
M  V30 4 1 4 5
M  V30 5 2 5 6
M  V30 6 1 5 7
M  V30 7 1 6 8
M  V30 8 2 7 9
M  V30 9 2 8 10
M  V30 10 1 10 11
M  V30 11 1 11 12
M  V30 12 1 13 12
M  V30 13 1 13 14 CFG=1
M  V30 14 1 13 15
M  V30 15 1 15 16
M  V30 16 1 16 17
M  V30 17 1 17 18
M  V30 18 1 17 19
M  V30 19 1 9 10
M  V30 END BOND
M  V30 BEGIN COLLECTION
M  V30 MDLV30/STERAC1 ATOMS=(1 13)
M  V30 END COLLECTION
M  V30 END CTAB
M  END
>  <Molecule Name>


>  <status>
-

>  <cas>
29122-68-7

>  <name>
ATENOLOL

>  <ID>
1161

>  <Smiles>
CC(C)NCC(COc1ccc(CC(N)=O)cc1)O

$$$$

Actelion Java MolfileCreator 2.0

  0  0  0  0  0  0              0 V3000
M  V30 BEGIN CTAB
M  V30 COUNTS 14 14 0 0 0
M  V30 BEGIN ATOM
M  V30 1 O 1.732 -1.5 0.0 0
M  V30 2 C 1.732 -0.5 0.0 0
M  V30 3 N 2.598 0.0 0.0 0
M  V30 4 C 0.866 0.0 0.0 0 CFG=1
M  V30 5 C 3.4641 -0.5 0.0 0
M  V30 6 N 0.866 1.0 0.0 0
M  V30 7 C 0.0 -0.5 0.0 0
M  V30 8 C 3.4641 -1.5 0.0 0
M  V30 9 C 4.3301 0.0 0.0 0
M  V30 10 C 4.3301 -2.0 0.0 0
M  V30 11 C 2.598 -1.9999 0.0 0
M  V30 12 C 5.1961 -0.5 0.0 0
M  V30 13 C 4.3301 0.9999 0.0 0
M  V30 14 C 5.1961 -1.5 0.0 0
M  V30 END ATOM
M  V30 BEGIN BOND
M  V30 1 2 1 2
M  V30 2 1 2 3
M  V30 3 1 4 2
M  V30 4 1 3 5
M  V30 5 1 4 6 CFG=3
M  V30 6 1 4 7
M  V30 7 2 5 8
M  V30 8 1 5 9
M  V30 9 1 8 10
M  V30 10 1 8 11
M  V30 11 2 9 12
M  V30 12 1 9 13
M  V30 13 2 10 14
M  V30 14 1 12 14
M  V30 END BOND
M  V30 BEGIN COLLECTION
M  V30 MDLV30/STERAC1 ATOMS=(1 4)
M  V30 END COLLECTION
M  V30 END CTAB
M  END
>  <Molecule Name>


>  <status>
DISCONTINUED

>  <cas>
41708-72-9

>  <name>
TOCAINIDE

>  <ID>
1162

>  <Smiles>
CC(C(Nc1c(C)cccc1C)=O)N

$$$$

Actelion Java MolfileCreator 2.0

  0  0  0  0  0  0              0 V3000
M  V30 BEGIN CTAB
M  V30 COUNTS 18 19 0 0 0
M  V30 BEGIN ATOM
M  V30 1 O 5.1961 -0.5 0.0 0
M  V30 2 C 6.0621 0.0 0.0 0
M  V30 3 C 4.3301 0.0 0.0 0
M  V30 4 C 6.0621 0.9999 0.0 0
M  V30 5 C 6.9282 -0.5 0.0 0
M  V30 6 C 3.4641 -0.5 0.0 0 CFG=1
M  V30 7 C 6.9282 1.4999 0.0 0
M  V30 8 C 5.319 1.6691 0.0 0
M  V30 9 C 7.7942 0.0 0.0 0
M  V30 10 O 3.4641 -1.5 0.0 0
M  V30 11 C 2.598 0.0 0.0 0
M  V30 12 N 6.7202 2.4781 0.0 0
M  V30 13 C 7.7942 0.9999 0.0 0
M  V30 14 C 5.7257 2.5826 0.0 0
M  V30 15 N 1.732 -0.5 0.0 0
M  V30 16 C 0.866 0.0 0.0 0
M  V30 17 C 0.866 1.0 0.0 0
M  V30 18 C 0.0 -0.5 0.0 0
M  V30 END ATOM
M  V30 BEGIN BOND
M  V30 1 1 1 2
M  V30 2 1 1 3
M  V30 3 2 2 4
M  V30 4 1 2 5
M  V30 5 1 6 3
M  V30 6 1 4 7
M  V30 7 1 4 8
M  V30 8 2 5 9
M  V30 9 1 6 10 CFG=1
M  V30 10 1 6 11
M  V30 11 1 7 12
M  V30 12 2 7 13
M  V30 13 2 8 14
M  V30 14 1 11 15
M  V30 15 1 15 16
M  V30 16 1 16 17
M  V30 17 1 16 18
M  V30 18 1 9 13
M  V30 19 1 12 14
M  V30 END BOND
M  V30 BEGIN COLLECTION
M  V30 MDLV30/STERAC1 ATOMS=(1 6)
M  V30 END COLLECTION
M  V30 END CTAB
M  END
>  <Molecule Name>


>  <status>
-

>  <cas>
13523-86-9

>  <name>
PINDOLOL

>  <ID>
1163

>  <Smiles>
CC(C)NCC(COc1c(cc[nH]2)c2ccc1)O

$$$$

Actelion Java MolfileCreator 2.0

  0  0  0  0  0  0              0 V3000
M  V30 BEGIN CTAB
M  V30 COUNTS 19 21 0 0 0
M  V30 BEGIN ATOM
M  V30 1 Cl 7.6501 2.269 0.0 0
M  V30 2 C 6.6555 2.3736 0.0 0
M  V30 3 C 6.0677 1.5646 0.0 0
M  V30 4 C 6.2488 3.2871 0.0 0
M  V30 5 C 5.0732 1.6691 0.0 0
M  V30 6 C 5.2543 3.3916 0.0 0
M  V30 7 C 4.6665 2.5826 0.0 0
M  V30 8 C 4.3301 1.0 0.0 0
M  V30 9 N 3.672 2.4781 0.0 0
M  V30 10 C 3.4641 1.5 0.0 0
M  V30 11 C 4.3301 0.0 0.0 0
M  V30 12 C 2.598 0.9999 0.0 0
M  V30 13 C 3.4641 -0.4999 0.0 0
M  V30 14 C 2.598 0.0 0.0 0
M  V30 15 C 1.732 -0.5 0.0 0 CFG=2
M  V30 16 C 0.866 0.0 0.0 0
M  V30 17 C 1.732 -1.5 0.0 0
M  V30 18 O 0.866 1.0 0.0 0
M  V30 19 O 0.0 -0.5 0.0 0 CHG=-1
M  V30 END ATOM
M  V30 BEGIN BOND
M  V30 1 1 1 2
M  V30 2 2 2 3
M  V30 3 1 2 4
M  V30 4 1 3 5
M  V30 5 2 4 6
M  V30 6 2 5 7
M  V30 7 1 5 8
M  V30 8 1 7 9
M  V30 9 2 8 10
M  V30 10 1 8 11
M  V30 11 1 10 12
M  V30 12 2 11 13
M  V30 13 2 12 14
M  V30 14 1 15 14
M  V30 15 1 15 16
M  V30 16 1 15 17 CFG=1
M  V30 17 2 16 18
M  V30 18 1 16 19
M  V30 19 1 6 7
M  V30 20 1 9 10
M  V30 21 1 13 14
M  V30 END BOND
M  V30 BEGIN COLLECTION
M  V30 MDLV30/STERAC1 ATOMS=(1 15)
M  V30 END COLLECTION
M  V30 END CTAB
M  END
>  <Molecule Name>


>  <status>
DISCONTINUED

>  <cas>
53716-49-7

>  <name>
CARPROFEN

>  <ID>
1164

>  <Smiles>
CC(C([O-])=O)c(cc1)cc2c1c(cc(cc1)Cl)c1[nH]2

$$$$

Actelion Java MolfileCreator 2.0

  0  0  0  0  0  0              0 V3000
M  V30 BEGIN CTAB
M  V30 COUNTS 24 26 0 0 0
M  V30 BEGIN ATOM
M  V30 1 Cl 0.866 0.9999 0.0 0
M  V30 2 C 1.732 1.4999 0.0 0
M  V30 3 C 2.598 1.0 0.0 0
M  V30 4 C 1.732 2.4999 0.0 0
M  V30 5 C 3.4641 1.5 0.0 0
M  V30 6 C 2.598 0.0 0.0 0 CFG=1
M  V30 7 C 2.598 3.0 0.0 0
M  V30 8 C 3.4641 2.5 0.0 0
M  V30 9 S 1.732 -0.5 0.0 0
M  V30 10 C 3.4641 -0.5 0.0 0
M  V30 11 Cl 2.598 4.0 0.0 0
M  V30 12 C 0.866 0.0 0.0 0
M  V30 13 N 4.3301 0.0 0.0 0
M  V30 14 C 0.0 -0.5 0.0 0
M  V30 15 C 5.2436 -0.4067 0.0 0
M  V30 16 C 4.4346 0.9945 0.0 0
M  V30 17 C -0.866 0.0 0.0 0
M  V30 18 C 0.0 -1.4999 0.0 0
M  V30 19 N 5.9128 0.3364 0.0 0
M  V30 20 C 5.4128 1.2024 0.0 0
M  V30 21 C -1.732 -0.4999 0.0 0
M  V30 22 C -0.866 -1.9999 0.0 0
M  V30 23 C -1.732 -1.4999 0.0 0
M  V30 24 Cl -2.598 -1.9999 0.0 0
M  V30 END ATOM
M  V30 BEGIN BOND
M  V30 1 1 1 2
M  V30 2 2 2 3
M  V30 3 1 2 4
M  V30 4 1 3 5
M  V30 5 1 6 3
M  V30 6 2 4 7
M  V30 7 2 5 8
M  V30 8 1 6 9 CFG=3
M  V30 9 1 6 10
M  V30 10 1 7 11
M  V30 11 1 9 12
M  V30 12 1 10 13
M  V30 13 1 12 14
M  V30 14 1 13 15
M  V30 15 1 13 16
M  V30 16 2 14 17
M  V30 17 1 14 18
M  V30 18 2 15 19
M  V30 19 2 16 20
M  V30 20 1 17 21
M  V30 21 2 18 22
M  V30 22 2 21 23
M  V30 23 1 23 24
M  V30 24 1 7 8
M  V30 25 1 19 20
M  V30 26 1 22 23
M  V30 END BOND
M  V30 BEGIN COLLECTION
M  V30 MDLV30/STERAC1 ATOMS=(1 6)
M  V30 END COLLECTION
M  V30 END CTAB
M  END
>  <Molecule Name>


>  <status>
-

>  <cas>
61318-90-9

>  <name>
SULCONAZOLE

>  <ID>
1165

>  <Smiles>
Clc1ccc(CSC(Cn2cncc2)c(ccc(Cl)c2)c2Cl)cc1

$$$$

Actelion Java MolfileCreator 2.0

  0  0  0  0  0  0              0 V3000
M  V30 BEGIN CTAB
M  V30 COUNTS 24 26 0 0 0
M  V30 BEGIN ATOM
M  V30 1 Cl 0.866 0.9999 0.0 0
M  V30 2 C 1.732 1.4999 0.0 0
M  V30 3 C 2.598 1.0 0.0 0
M  V30 4 C 1.732 2.4999 0.0 0
M  V30 5 C 3.4641 1.5 0.0 0
M  V30 6 C 2.598 0.0 0.0 0 CFG=1
M  V30 7 C 2.598 3.0 0.0 0
M  V30 8 C 3.4641 2.5 0.0 0
M  V30 9 O 1.732 -0.5 0.0 0
M  V30 10 C 3.4641 -0.5 0.0 0
M  V30 11 Cl 2.598 4.0 0.0 0
M  V30 12 C 0.866 0.0 0.0 0
M  V30 13 N 4.3301 0.0 0.0 0
M  V30 14 C 0.0 -0.5 0.0 0
M  V30 15 C 5.2436 -0.4067 0.0 0
M  V30 16 C 4.4346 0.9945 0.0 0
M  V30 17 C -0.866 0.0 0.0 0
M  V30 18 C 0.0 -1.4999 0.0 0
M  V30 19 N 5.9128 0.3364 0.0 0
M  V30 20 C 5.4128 1.2024 0.0 0
M  V30 21 C -1.732 -0.4999 0.0 0
M  V30 22 C -0.866 -1.9999 0.0 0
M  V30 23 C -1.732 -1.4999 0.0 0
M  V30 24 Cl -2.598 -1.9999 0.0 0
M  V30 END ATOM
M  V30 BEGIN BOND
M  V30 1 1 1 2
M  V30 2 2 2 3
M  V30 3 1 2 4
M  V30 4 1 3 5
M  V30 5 1 6 3
M  V30 6 2 4 7
M  V30 7 2 5 8
M  V30 8 1 6 9 CFG=3
M  V30 9 1 6 10
M  V30 10 1 7 11
M  V30 11 1 9 12
M  V30 12 1 10 13
M  V30 13 1 12 14
M  V30 14 1 13 15
M  V30 15 1 13 16
M  V30 16 2 14 17
M  V30 17 1 14 18
M  V30 18 2 15 19
M  V30 19 2 16 20
M  V30 20 1 17 21
M  V30 21 2 18 22
M  V30 22 2 21 23
M  V30 23 1 23 24
M  V30 24 1 7 8
M  V30 25 1 19 20
M  V30 26 1 22 23
M  V30 END BOND
M  V30 BEGIN COLLECTION
M  V30 MDLV30/STERAC1 ATOMS=(1 6)
M  V30 END COLLECTION
M  V30 END CTAB
M  END
>  <Molecule Name>


>  <status>
-

>  <cas>
27220-47-9

>  <name>
ECONAZOLE

>  <ID>
1166

>  <Smiles>
Clc1ccc(COC(Cn2cncc2)c(ccc(Cl)c2)c2Cl)cc1

$$$$

Actelion Java MolfileCreator 2.0

  0  0  0  0  0  0              0 V3000
M  V30 BEGIN CTAB
M  V30 COUNTS 19 20 0 0 0
M  V30 BEGIN ATOM
M  V30 1 O 2.598 3.0 0.0 0
M  V30 2 C 3.4641 2.5 0.0 0
M  V30 3 C 3.4641 1.5 0.0 0
M  V30 4 C 4.3301 3.0 0.0 0
M  V30 5 C 2.598 1.0 0.0 0
M  V30 6 C 4.3301 1.0 0.0 0
M  V30 7 C 5.1961 2.4999 0.0 0
M  V30 8 C 4.3301 4.0 0.0 0
M  V30 9 C 2.598 0.0 0.0 0
M  V30 10 C 4.3301 0.0 0.0 0
M  V30 11 C 6.0621 2.9999 0.0 0
M  V30 12 C 5.1961 4.4999 0.0 0
M  V30 13 C 3.4641 -0.4999 0.0 0
M  V30 14 C 1.732 -0.5 0.0 0 CFG=2
M  V30 15 C 6.0621 3.9999 0.0 0
M  V30 16 C 0.866 0.0 0.0 0
M  V30 17 C 1.732 -1.5 0.0 0
M  V30 18 O 0.866 1.0 0.0 0
M  V30 19 O 0.0 -0.5 0.0 0 CHG=-1
M  V30 END ATOM
M  V30 BEGIN BOND
M  V30 1 2 1 2
M  V30 2 1 2 3
M  V30 3 1 2 4
M  V30 4 2 3 5
M  V30 5 1 3 6
M  V30 6 2 4 7
M  V30 7 1 4 8
M  V30 8 1 5 9
M  V30 9 2 6 10
M  V30 10 1 7 11
M  V30 11 2 8 12
M  V30 12 2 9 13
M  V30 13 1 14 9
M  V30 14 2 11 15
M  V30 15 1 14 16
M  V30 16 1 14 17 CFG=1
M  V30 17 2 16 18
M  V30 18 1 16 19
M  V30 19 1 10 13
M  V30 20 1 12 15
M  V30 END BOND
M  V30 BEGIN COLLECTION
M  V30 MDLV30/STERAC1 ATOMS=(1 14)
M  V30 END COLLECTION
M  V30 END CTAB
M  END
>  <Molecule Name>


>  <status>
-

>  <cas>
22071-15-4

>  <name>
KETOPROFEN

>  <ID>
1167

>  <Smiles>
CC(C([O-])=O)c1cccc(C(c2ccccc2)=O)c1

$$$$

Actelion Java MolfileCreator 2.0

  0  0  0  0  0  0              0 V3000
M  V30 BEGIN CTAB
M  V30 COUNTS 18 19 0 0 0
M  V30 BEGIN ATOM
M  V30 1 F 5.1961 -0.5 0.0 0
M  V30 2 C 4.3301 0.0 0.0 0
M  V30 3 C 4.3301 1.0 0.0 0
M  V30 4 C 3.4641 -0.4999 0.0 0
M  V30 5 C 5.1961 1.5 0.0 0
M  V30 6 C 3.4641 1.5 0.0 0
M  V30 7 C 2.598 0.0 0.0 0
M  V30 8 C 6.0621 0.9999 0.0 0
M  V30 9 C 5.1961 2.4999 0.0 0
M  V30 10 C 2.598 1.0 0.0 0
M  V30 11 C 1.732 -0.5 0.0 0 CFG=2
M  V30 12 C 6.9282 1.4999 0.0 0
M  V30 13 C 6.0621 2.9999 0.0 0
M  V30 14 C 0.866 0.0 0.0 0
M  V30 15 C 1.732 -1.5 0.0 0
M  V30 16 C 6.9282 2.4999 0.0 0
M  V30 17 O 0.866 1.0 0.0 0
M  V30 18 O 0.0 -0.5 0.0 0 CHG=-1
M  V30 END ATOM
M  V30 BEGIN BOND
M  V30 1 1 1 2
M  V30 2 2 2 3
M  V30 3 1 2 4
M  V30 4 1 3 5
M  V30 5 1 3 6
M  V30 6 2 4 7
M  V30 7 2 5 8
M  V30 8 1 5 9
M  V30 9 2 6 10
M  V30 10 1 11 7
M  V30 11 1 8 12
M  V30 12 2 9 13
M  V30 13 1 11 14
M  V30 14 1 11 15 CFG=1
M  V30 15 2 12 16
M  V30 16 2 14 17
M  V30 17 1 14 18
M  V30 18 1 7 10
M  V30 19 1 13 16
M  V30 END BOND
M  V30 BEGIN COLLECTION
M  V30 MDLV30/STERAC1 ATOMS=(1 11)
M  V30 END COLLECTION
M  V30 END CTAB
M  END
>  <Molecule Name>


>  <status>
-

>  <cas>
5104-49-4

>  <name>
FLURBIPROFEN

>  <ID>
1168

>  <Smiles>
CC(C([O-])=O)c(cc1)cc(F)c1-c1ccccc1

$$$$

Actelion Java MolfileCreator 2.0

  0  0  0  0  0  0              0 V3000
M  V30 BEGIN CTAB
M  V30 COUNTS 28 29 0 0 0
M  V30 BEGIN ATOM
M  V30 1 F 4.1961 2.4999 0.0 0
M  V30 2 C 5.1961 2.4999 0.0 0
M  V30 3 F 5.1961 3.4999 0.0 0
M  V30 4 F 6.1961 2.4999 0.0 0
M  V30 5 C 5.1961 1.4999 0.0 0
M  V30 6 O 4.3301 0.9999 0.0 0
M  V30 7 C 4.3301 0.0 0.0 0
M  V30 8 C 3.4641 -0.5 0.0 0
M  V30 9 C 5.1961 -0.5 0.0 0
M  V30 10 C 2.598 0.0 0.0 0
M  V30 11 C 3.4641 -1.5 0.0 0
M  V30 12 C 5.1961 -1.5 0.0 0
M  V30 13 O 2.598 1.0 0.0 0
M  V30 14 N 1.732 -0.5 0.0 0
M  V30 15 C 4.3301 -2.0 0.0 0
M  V30 16 C 0.866 0.0 0.0 0
M  V30 17 O 4.3301 -3.0 0.0 0
M  V30 18 C 0.0 -0.5 0.0 0 CFG=2
M  V30 19 C 3.4641 -3.5 0.0 0
M  V30 20 N -0.866 0.0 0.0 0
M  V30 21 C 0.0 -1.4999 0.0 0
M  V30 22 C 3.4641 -4.5 0.0 0
M  V30 23 C -1.732 -0.4999 0.0 0
M  V30 24 C -0.866 -1.9999 0.0 0
M  V30 25 F 4.4641 -4.5 0.0 0
M  V30 26 F 3.4641 -5.5 0.0 0
M  V30 27 F 2.4641 -4.4999 0.0 0
M  V30 28 C -1.732 -1.4999 0.0 0
M  V30 END ATOM
M  V30 BEGIN BOND
M  V30 1 1 1 2
M  V30 2 1 2 3
M  V30 3 1 2 4
M  V30 4 1 2 5
M  V30 5 1 5 6
M  V30 6 1 6 7
M  V30 7 2 7 8
M  V30 8 1 7 9
M  V30 9 1 8 10
M  V30 10 1 8 11
M  V30 11 2 9 12
M  V30 12 2 10 13
M  V30 13 1 10 14
M  V30 14 2 11 15
M  V30 15 1 14 16
M  V30 16 1 15 17
M  V30 17 1 18 16 CFG=1
M  V30 18 1 17 19
M  V30 19 1 18 20
M  V30 20 1 18 21
M  V30 21 1 19 22
M  V30 22 1 20 23
M  V30 23 1 21 24
M  V30 24 1 22 25
M  V30 25 1 22 26
M  V30 26 1 22 27
M  V30 27 1 23 28
M  V30 28 1 12 15
M  V30 29 1 24 28
M  V30 END BOND
M  V30 BEGIN COLLECTION
M  V30 MDLV30/STERAC1 ATOMS=(1 18)
M  V30 END COLLECTION
M  V30 END CTAB
M  END
>  <Molecule Name>


>  <status>
-

>  <cas>
54143-55-4

>  <name>
FLECAINIDE

>  <ID>
1169

>  <Smiles>
O=C(c(cc(cc1)OCC(F)(F)F)c1OCC(F)(F)F)NCC1NCCCC1

$$$$

Actelion Java MolfileCreator 2.0

  0  0  0  0  0  0              0 V3000
M  V30 BEGIN CTAB
M  V30 COUNTS 30 31 0 0 0
M  V30 BEGIN ATOM
M  V30 1 O 3.8971 -7.5 0.0 0
M  V30 2 N 5.1961 -6.7499 0.0 0 CHG=1
M  V30 3 O 6.4951 -7.4999 0.0 0 CHG=-1
M  V30 4 C 5.1961 -5.2499 0.0 0
M  V30 5 C 6.4951 -4.4999 0.0 0
M  V30 6 C 3.8971 -4.4999 0.0 0
M  V30 7 C 6.4951 -2.9999 0.0 0
M  V30 8 C 3.8971 -2.9999 0.0 0
M  V30 9 C 5.1961 -2.2499 0.0 0
M  V30 10 C 7.7942 -2.2499 0.0 0 CFG=2
M  V30 11 C 9.0932 -3.0 0.0 0
M  V30 12 C 7.7942 -0.75 0.0 0
M  V30 13 C 10.3923 -2.25 0.0 0
M  V30 14 C 9.0932 -4.5 0.0 0
M  V30 15 C 9.0932 0.0 0.0 0
M  V30 16 C 6.4951 0.0 0.0 0
M  V30 17 N 10.3923 -0.7499 0.0 0
M  V30 18 C 11.6913 -3.0 0.0 0
M  V30 19 O 7.7942 -5.25 0.0 0
M  V30 20 O 10.3923 -5.25 0.0 0
M  V30 21 C 9.0932 1.4999 0.0 0
M  V30 22 O 6.4951 1.5 0.0 0
M  V30 23 O 5.1961 -0.75 0.0 0
M  V30 24 C 10.3923 -6.75 0.0 0
M  V30 25 C 3.8971 0.0 0.0 0
M  V30 26 C 9.0932 -7.5 0.0 0
M  V30 27 C 11.6913 -7.5 0.0 0
M  V30 28 C 2.598 -0.75 0.0 0
M  V30 29 O 1.299 0.0 0.0 0
M  V30 30 C 0.0 -0.75 0.0 0
M  V30 END ATOM
M  V30 BEGIN BOND
M  V30 1 2 1 2
M  V30 2 1 2 3
M  V30 3 1 2 4
M  V30 4 2 4 5
M  V30 5 1 4 6
M  V30 6 1 5 7
M  V30 7 2 6 8
M  V30 8 2 7 9
M  V30 9 1 10 7 CFG=1
M  V30 10 1 10 11
M  V30 11 1 10 12
M  V30 12 2 11 13
M  V30 13 1 11 14
M  V30 14 2 12 15
M  V30 15 1 12 16
M  V30 16 1 13 17
M  V30 17 1 13 18
M  V30 18 2 14 19
M  V30 19 1 14 20
M  V30 20 1 15 21
M  V30 21 2 16 22
M  V30 22 1 16 23
M  V30 23 1 20 24
M  V30 24 1 23 25
M  V30 25 1 24 26
M  V30 26 1 24 27
M  V30 27 1 25 28
M  V30 28 1 28 29
M  V30 29 1 29 30
M  V30 30 1 8 9
M  V30 31 1 15 17
M  V30 END BOND
M  V30 BEGIN COLLECTION
M  V30 MDLV30/STERAC1 ATOMS=(1 10)
M  V30 END COLLECTION
M  V30 END CTAB
M  END
>  <Molecule Name>


>  <status>
-

>  <cas>
66085-59-4

>  <name>
NIMODIPINE

>  <ID>
1170

>  <Smiles>
CC(C)OC(C(C1c2cccc([N+]([O-])=O)c2)=C(C)NC(C)=C1C(OCCOC)=O)=O

$$$$

Actelion Java MolfileCreator 2.0

  0  0  0  0  0  0              0 V3000
M  V30 BEGIN CTAB
M  V30 COUNTS 13 13 0 0 0
M  V30 BEGIN ATOM
M  V30 1 O 2.598 0.0 0.0 0
M  V30 2 C 3.4641 -0.5 0.0 0
M  V30 3 C 1.732 -0.5 0.0 0
M  V30 4 C 3.4641 -1.5 0.0 0
M  V30 5 C 4.3301 0.0 0.0 0
M  V30 6 C 0.866 0.0 0.0 0 CFG=1
M  V30 7 C 4.3301 -2.0 0.0 0
M  V30 8 C 2.598 -1.9999 0.0 0
M  V30 9 C 5.1961 -0.5 0.0 0
M  V30 10 C 4.3301 0.9999 0.0 0
M  V30 11 N 0.866 1.0 0.0 0
M  V30 12 C 0.0 -0.5 0.0 0
M  V30 13 C 5.1961 -1.5 0.0 0
M  V30 END ATOM
M  V30 BEGIN BOND
M  V30 1 1 1 2
M  V30 2 1 1 3
M  V30 3 2 2 4
M  V30 4 1 2 5
M  V30 5 1 6 3
M  V30 6 1 4 7
M  V30 7 1 4 8
M  V30 8 2 5 9
M  V30 9 1 5 10
M  V30 10 1 6 11 CFG=3
M  V30 11 1 6 12
M  V30 12 2 7 13
M  V30 13 1 9 13
M  V30 END BOND
M  V30 BEGIN COLLECTION
M  V30 MDLV30/STERAC1 ATOMS=(1 6)
M  V30 END COLLECTION
M  V30 END CTAB
M  END
>  <Molecule Name>


>  <status>
-

>  <cas>
31828-71-4

>  <name>
MEXILETINE

>  <ID>
1171

>  <Smiles>
CC(COc1c(C)cccc1C)N

$$$$

Actelion Java MolfileCreator 2.0

  0  0  0  0  0  0              0 V3000
M  V30 BEGIN CTAB
M  V30 COUNTS 24 24 0 0 0
M  V30 BEGIN ATOM
M  V30 1 O 9.5262 0.0 0.0 0
M  V30 2 C 9.5262 0.9999 0.0 0
M  V30 3 N 8.6602 1.4999 0.0 0
M  V30 4 C 10.3923 1.4999 0.0 0
M  V30 5 C 7.7942 0.9999 0.0 0
M  V30 6 C 11.2583 0.9999 0.0 0
M  V30 7 C 6.9282 1.4999 0.0 0
M  V30 8 C 7.7942 0.0 0.0 0
M  V30 9 C 12.1243 1.4999 0.0 0
M  V30 10 C 6.0621 1.0 0.0 0
M  V30 11 C 6.9282 -0.5 0.0 0
M  V30 12 C 6.0621 0.0 0.0 0
M  V30 13 C 5.1961 1.5 0.0 0
M  V30 14 O 5.1961 -0.5 0.0 0
M  V30 15 O 5.1961 2.5 0.0 0
M  V30 16 C 4.3301 1.0 0.0 0
M  V30 17 C 4.3301 0.0 0.0 0
M  V30 18 C 3.4641 -0.5 0.0 0 CFG=1
M  V30 19 O 3.4641 -1.5 0.0 0
M  V30 20 C 2.598 0.0 0.0 0
M  V30 21 N 1.732 -0.5 0.0 0
M  V30 22 C 0.866 0.0 0.0 0
M  V30 23 C 0.866 1.0 0.0 0
M  V30 24 C 0.0 -0.5 0.0 0
M  V30 END ATOM
M  V30 BEGIN BOND
M  V30 1 2 1 2
M  V30 2 1 2 3
M  V30 3 1 2 4
M  V30 4 1 3 5
M  V30 5 1 4 6
M  V30 6 2 5 7
M  V30 7 1 5 8
M  V30 8 1 6 9
M  V30 9 1 7 10
M  V30 10 2 8 11
M  V30 11 2 10 12
M  V30 12 1 10 13
M  V30 13 1 12 14
M  V30 14 2 13 15
M  V30 15 1 13 16
M  V30 16 1 14 17
M  V30 17 1 18 17
M  V30 18 1 18 19 CFG=1
M  V30 19 1 18 20
M  V30 20 1 20 21
M  V30 21 1 21 22
M  V30 22 1 22 23
M  V30 23 1 22 24
M  V30 24 1 11 12
M  V30 END BOND
M  V30 BEGIN COLLECTION
M  V30 MDLV30/STERAC1 ATOMS=(1 18)
M  V30 END COLLECTION
M  V30 END CTAB
M  END
>  <Molecule Name>


>  <status>
-

>  <cas>
37517-30-9

>  <name>
ACEBUTOLOL

>  <ID>
1172

>  <Smiles>
CCCC(Nc(cc1)cc(C(C)=O)c1OCC(CNC(C)C)O)=O

$$$$

Actelion Java MolfileCreator 2.0

  0  0  0  0  0  0              0 V3000
M  V30 BEGIN CTAB
M  V30 COUNTS 21 23 0 0 0
M  V30 BEGIN ATOM
M  V30 1 O 2.598 2.2499 0.0 0
M  V30 2 C 1.299 1.4999 0.0 0
M  V30 3 O 0.0 2.25 0.0 0 CHG=-1
M  V30 4 C 1.299 0.0 0.0 0
M  V30 5 C 0.0 -0.75 0.0 0 CFG=2
M  V30 6 O 0.0 -2.25 0.0 0
M  V30 7 C -1.299 0.0 0.0 0
M  V30 8 C 1.299 -1.5 0.0 0
M  V30 9 C -1.299 -2.9999 0.0 0
M  V30 10 N -1.6109 1.4672 0.0 0
M  V30 11 C -2.598 -0.7499 0.0 0
M  V30 12 C 2.598 -0.75 0.0 0
M  V30 13 C -2.598 -2.2499 0.0 0
M  V30 14 C -3.1026 1.624 0.0 0
M  V30 15 C -3.7127 0.2536 0.0 0
M  V30 16 C -3.9843 2.8375 0.0 0
M  V30 17 C -5.2045 0.0969 0.0 0
M  V30 18 C -5.4761 2.6807 0.0 0
M  V30 19 C -3.3742 4.2078 0.0 0
M  V30 20 C -6.0862 1.3104 0.0 0
M  V30 21 C -4.2559 5.4213 0.0 0
M  V30 END ATOM
M  V30 BEGIN BOND
M  V30 1 2 1 2
M  V30 2 1 2 3
M  V30 3 1 2 4
M  V30 4 1 5 4
M  V30 5 1 5 6
M  V30 6 1 5 7
M  V30 7 1 5 8 CFG=1
M  V30 8 1 6 9
M  V30 9 1 7 10
M  V30 10 2 7 11
M  V30 11 1 8 12
M  V30 12 1 9 13
M  V30 13 1 10 14
M  V30 14 1 11 15
M  V30 15 1 14 16
M  V30 16 1 15 17
M  V30 17 2 16 18
M  V30 18 1 16 19
M  V30 19 2 17 20
M  V30 20 1 19 21
M  V30 21 1 11 13
M  V30 22 2 14 15
M  V30 23 1 18 20
M  V30 END BOND
M  V30 BEGIN COLLECTION
M  V30 MDLV30/STERAC1 ATOMS=(1 5)
M  V30 END COLLECTION
M  V30 END CTAB
M  END
>  <Molecule Name>


>  <status>
-

>  <cas>
41340-25-4

>  <name>
ETODOLAC

>  <ID>
1173

>  <Smiles>
CCC1(CC([O-])=O)OCCc2c1[nH]c1c2cccc1CC

$$$$

Actelion Java MolfileCreator 2.0

  0  0  0  0  0  0              0 V3000
M  V30 BEGIN CTAB
M  V30 COUNTS 22 23 0 0 0
M  V30 BEGIN ATOM
M  V30 1 F 8.2942 -1.1339 0.0 0
M  V30 2 C 7.7942 -2.0 0.0 0
M  V30 3 F 8.6602 -2.5 0.0 0
M  V30 4 F 7.2942 -2.866 0.0 0
M  V30 5 C 6.9282 -1.5 0.0 0
M  V30 6 C 6.9282 -0.5 0.0 0
M  V30 7 C 6.0621 -2.0 0.0 0
M  V30 8 C 6.0621 0.0 0.0 0
M  V30 9 C 5.1961 -1.5 0.0 0
M  V30 10 C 5.1961 -0.5 0.0 0
M  V30 11 O 4.3301 0.0 0.0 0
M  V30 12 C 3.4641 -0.5 0.0 0 CFG=2
M  V30 13 C 3.4641 -1.5 0.0 0
M  V30 14 C 2.598 0.0 0.0 0
M  V30 15 C 2.598 -1.9999 0.0 0
M  V30 16 C 4.3301 -2.0 0.0 0
M  V30 17 C 1.732 -0.5 0.0 0
M  V30 18 C 2.598 -2.9999 0.0 0
M  V30 19 C 4.3301 -3.0 0.0 0
M  V30 20 N 0.866 0.0 0.0 0
M  V30 21 C 3.4641 -3.5 0.0 0
M  V30 22 C 0.0 -0.5 0.0 0
M  V30 END ATOM
M  V30 BEGIN BOND
M  V30 1 1 1 2
M  V30 2 1 2 3
M  V30 3 1 2 4
M  V30 4 1 2 5
M  V30 5 2 5 6
M  V30 6 1 5 7
M  V30 7 1 6 8
M  V30 8 2 7 9
M  V30 9 2 8 10
M  V30 10 1 10 11
M  V30 11 1 12 11 CFG=3
M  V30 12 1 12 13
M  V30 13 1 12 14
M  V30 14 2 13 15
M  V30 15 1 13 16
M  V30 16 1 14 17
M  V30 17 1 15 18
M  V30 18 2 16 19
M  V30 19 1 17 20
M  V30 20 2 18 21
M  V30 21 1 20 22
M  V30 22 1 9 10
M  V30 23 1 19 21
M  V30 END BOND
M  V30 BEGIN COLLECTION
M  V30 MDLV30/STERAC1 ATOMS=(1 12)
M  V30 END COLLECTION
M  V30 END CTAB
M  END
>  <Molecule Name>


>  <status>
-

>  <cas>
54910-89-3

>  <name>
FLUOXETINE

>  <ID>
1174

>  <Smiles>
CNCCC(c1ccccc1)Oc1ccc(C(F)(F)F)cc1

$$$$

Actelion Java MolfileCreator 2.0

  0  0  0  0  0  0              0 V3000
M  V30 BEGIN CTAB
M  V30 COUNTS 27 29 0 0 0
M  V30 BEGIN ATOM
M  V30 1 O 6.4951 -2.9999 0.0 0
M  V30 2 C 5.1961 -2.25 0.0 0
M  V30 3 C 6.4951 -4.5 0.0 0
M  V30 4 C 5.1961 -0.75 0.0 0 CFG=1
M  V30 5 C 7.7942 -5.25 0.0 0
M  V30 6 N 6.4951 0.0 0.0 0
M  V30 7 C 3.8971 0.0 0.0 0
M  V30 8 C 7.7942 -6.75 0.0 0
M  V30 9 C 9.0932 -4.5 0.0 0
M  V30 10 C 6.6519 1.4917 0.0 0
M  V30 11 C 7.8655 -0.6101 0.0 0
M  V30 12 N 2.598 -0.75 0.0 0
M  V30 13 C 8.1192 1.8036 0.0 0
M  V30 14 C 8.8692 0.5046 0.0 0
M  V30 15 C 2.598 -2.25 0.0 0
M  V30 16 C 1.299 0.0 0.0 0
M  V30 17 C 1.299 -2.9999 0.0 0
M  V30 18 C 3.8971 -3.0 0.0 0
M  V30 19 C 0.0 -0.75 0.0 0
M  V30 20 C 1.299 -4.4999 0.0 0
M  V30 21 C 3.8971 -4.5 0.0 0
M  V30 22 C -1.299 0.0 0.0 0
M  V30 23 C 0.0 -2.2499 0.0 0
M  V30 24 C 2.598 -5.25 0.0 0
M  V30 25 C -2.598 -0.7499 0.0 0
M  V30 26 C -1.299 -2.9999 0.0 0
M  V30 27 C -2.598 -2.2499 0.0 0
M  V30 END ATOM
M  V30 BEGIN BOND
M  V30 1 1 1 2
M  V30 2 1 1 3
M  V30 3 1 4 2
M  V30 4 1 3 5
M  V30 5 1 4 6 CFG=3
M  V30 6 1 4 7
M  V30 7 1 5 8
M  V30 8 1 5 9
M  V30 9 1 6 10
M  V30 10 1 6 11
M  V30 11 1 7 12
M  V30 12 1 10 13
M  V30 13 1 11 14
M  V30 14 1 12 15
M  V30 15 1 12 16
M  V30 16 2 15 17
M  V30 17 1 15 18
M  V30 18 1 16 19
M  V30 19 1 17 20
M  V30 20 2 18 21
M  V30 21 2 19 22
M  V30 22 1 19 23
M  V30 23 2 20 24
M  V30 24 1 22 25
M  V30 25 2 23 26
M  V30 26 2 25 27
M  V30 27 1 13 14
M  V30 28 1 21 24
M  V30 29 1 26 27
M  V30 END BOND
M  V30 BEGIN COLLECTION
M  V30 MDLV30/STERAC1 ATOMS=(1 4)
M  V30 END COLLECTION
M  V30 END CTAB
M  END
>  <Molecule Name>


>  <status>
DISCONTINUED

>  <cas>
64706-54-3

>  <name>
BEPRIDIL

>  <ID>
1175

>  <Smiles>
CC(C)COCC(CN(Cc1ccccc1)c1ccccc1)N1CCCC1

$$$$

Actelion Java MolfileCreator 2.0

  0  0  0  0  0  0              0 V3000
M  V30 BEGIN CTAB
M  V30 COUNTS 28 31 0 0 0
M  V30 BEGIN ATOM
M  V30 1 O 1.732 -0.5 0.0 0
M  V30 2 C 0.866 0.0 0.0 0
M  V30 3 N 0.866 1.0 0.0 0
M  V30 4 C 0.0 -0.5 0.0 0 CFG=1
M  V30 5 C 1.732 1.4999 0.0 0
M  V30 6 C 0.0 1.4999 0.0 0
M  V30 7 O -0.9135 -0.0932 0.0 0
M  V30 8 C -0.1045 -1.4945 0.0 0
M  V30 9 C 1.732 2.5 0.0 0
M  V30 10 C 0.0 2.5 0.0 0
M  V30 11 C -1.5826 -0.8364 0.0 0
M  V30 12 C -1.0826 -1.7024 0.0 0
M  V30 13 N 0.866 3.0 0.0 0
M  V30 14 C 0.866 4.0 0.0 0
M  V30 15 N 1.732 4.5 0.0 0
M  V30 16 N 0.0 4.4999 0.0 0
M  V30 17 C 1.732 5.5 0.0 0
M  V30 18 C 0.0 5.4999 0.0 0
M  V30 19 N 2.598 6.0 0.0 0
M  V30 20 C 0.866 6.0 0.0 0
M  V30 21 C -0.866 5.9999 0.0 0
M  V30 22 C 0.866 7.0 0.0 0
M  V30 23 C -0.866 6.9999 0.0 0
M  V30 24 C 0.0 7.4999 0.0 0
M  V30 25 O -1.732 7.5 0.0 0
M  V30 26 O 0.0 8.5 0.0 0
M  V30 27 C -2.598 6.9999 0.0 0
M  V30 28 C -0.866 8.9999 0.0 0
M  V30 END ATOM
M  V30 BEGIN BOND
M  V30 1 2 1 2
M  V30 2 1 2 3
M  V30 3 1 4 2 CFG=3
M  V30 4 1 3 5
M  V30 5 1 3 6
M  V30 6 1 4 7
M  V30 7 1 4 8
M  V30 8 1 5 9
M  V30 9 1 6 10
M  V30 10 1 7 11
M  V30 11 1 8 12
M  V30 12 1 9 13
M  V30 13 1 13 14
M  V30 14 1 14 15
M  V30 15 2 14 16
M  V30 16 2 15 17
M  V30 17 1 16 18
M  V30 18 1 17 19
M  V30 19 1 17 20
M  V30 20 2 18 21
M  V30 21 2 20 22
M  V30 22 1 21 23
M  V30 23 1 22 24
M  V30 24 1 23 25
M  V30 25 1 24 26
M  V30 26 1 25 27
M  V30 27 1 26 28
M  V30 28 1 10 13
M  V30 29 1 11 12
M  V30 30 1 18 20
M  V30 31 2 23 24
M  V30 END BOND
M  V30 BEGIN COLLECTION
M  V30 MDLV30/STERAC1 ATOMS=(1 4)
M  V30 END COLLECTION
M  V30 END CTAB
M  END
>  <Molecule Name>


>  <status>
-

>  <cas>
63590-64-7

>  <name>
TERAZOSIN

>  <ID>
1176

>  <Smiles>
COc(cc1c(N)nc(N(CC2)CCN2C(C2OCCC2)=O)nc1c1)c1OC

$$$$

Actelion Java MolfileCreator 2.0

  0  0  0  0  0  0              0 V3000
M  V30 BEGIN CTAB
M  V30 COUNTS 24 26 0 0 0
M  V30 BEGIN ATOM
M  V30 1 O 2.598 1.0 0.0 0
M  V30 2 C 2.598 0.0 0.0 0
M  V30 3 O 3.4641 -0.5 0.0 0
M  V30 4 C 1.732 -0.5 0.0 0 CFG=1
M  V30 5 C 4.2707 -0.0342 0.0 0 CFG=1
M  V30 6 C 1.732 -1.5 0.0 0
M  V30 7 C 0.866 0.0 0.0 0
M  V30 8 C 4.3301 0.9999 0.0 0
M  V30 9 C 5.1452 -0.5078 0.0 0
M  V30 10 C 0.866 -1.9999 0.0 0
M  V30 11 C 2.598 -2.0 0.0 0
M  V30 12 O 0.0 -0.5 0.0 0
M  V30 13 C 5.5386 1.6319 0.0 0 CFG=2
M  V30 14 C 6.3476 0.2306 0.0 0 CFG=1
M  V30 15 C 0.866 -2.9999 0.0 0
M  V30 16 C 2.598 -3.0 0.0 0
M  V30 17 N 5.4341 0.6374 0.0 0 CHG=1 CFG=2
M  V30 18 C 6.5168 1.8398 0.0 0
M  V30 19 C 7.0168 0.9738 0.0 0
M  V30 20 C 1.732 -3.5 0.0 0
M  V30 21 C 4.6669 0.1926 0.0 0
M  V30 22 C 5.5885 -0.4394 0.0 0
M  V30 23 C 4.5681 -0.8625 0.0 0
M  V30 24 C 3.702 0.6374 0.0 0
M  V30 END ATOM
M  V30 BEGIN BOND
M  V30 1 2 1 2
M  V30 2 1 2 3
M  V30 3 1 4 2
M  V30 4 1 5 3 CFG=1
M  V30 5 1 4 6
M  V30 6 1 4 7 CFG=1
M  V30 7 1 5 8
M  V30 8 1 5 9
M  V30 9 2 6 10
M  V30 10 1 6 11
M  V30 11 1 7 12
M  V30 12 1 13 8 CFG=1
M  V30 13 1 14 9 CFG=1
M  V30 14 1 10 15
M  V30 15 2 11 16
M  V30 16 1 17 13
M  V30 17 1 13 18
M  V30 18 1 14 19
M  V30 19 2 15 20
M  V30 20 1 17 21
M  V30 21 1 17 22 CFG=1
M  V30 22 1 21 23
M  V30 23 1 21 24
M  V30 24 1 14 17
M  V30 25 1 16 20
M  V30 26 1 18 19
M  V30 END BOND
M  V30 BEGIN COLLECTION
M  V30 MDLV30/STEABS ATOMS=(4 5 13 14 17)
M  V30 MDLV30/STERAC1 ATOMS=(1 4)
M  V30 END COLLECTION
M  V30 END CTAB
M  END
>  <Molecule Name>


>  <status>
-

>  <cas>
60205-81-4

>  <name>
IPRATROPIUM

>  <ID>
1177

>  <Smiles>
CC(C)[N@+](C)([C@H](CC1)C2)[C@@H]1C[C@H]2OC(C(CO)c1ccccc1)=O

$$$$

Actelion Java MolfileCreator 2.0

  0  0  0  0  0  0              0 V3000
M  V30 BEGIN CTAB
M  V30 COUNTS 25 26 0 0 0
M  V30 BEGIN ATOM
M  V30 1 O 10.3923 2.25 0.0 0
M  V30 2 C 11.6913 1.5 0.0 0
M  V30 3 C 11.6913 0.0 0.0 0
M  V30 4 C 12.9903 2.25 0.0 0
M  V30 5 C 10.3923 -0.75 0.0 0
M  V30 6 C 12.9903 -0.7499 0.0 0
M  V30 7 C 14.2894 1.5 0.0 0
M  V30 8 O 9.0932 0.0 0.0 0
M  V30 9 C 10.3923 -2.25 0.0 0
M  V30 10 C 12.9903 -2.2499 0.0 0
M  V30 11 C 15.5884 2.25 0.0 0
M  V30 12 C 7.7942 -0.75 0.0 0
M  V30 13 C 11.6913 -3.0 0.0 0
M  V30 14 C 16.8874 1.5 0.0 0
M  V30 15 C 15.5884 3.75 0.0 0
M  V30 16 C 6.4951 0.0 0.0 0 CFG=1
M  V30 17 C 18.1865 2.25 0.0 0
M  V30 18 C 16.8874 4.5 0.0 0
M  V30 19 O 6.4951 1.5 0.0 0
M  V30 20 C 5.1961 -0.75 0.0 0
M  V30 21 C 18.1865 3.75 0.0 0
M  V30 22 N 3.8971 0.0 0.0 0
M  V30 23 C 2.598 -0.75 0.0 0
M  V30 24 C 1.299 0.0 0.0 0
M  V30 25 C 0.0 -0.75 0.0 0
M  V30 END ATOM
M  V30 BEGIN BOND
M  V30 1 2 1 2
M  V30 2 1 2 3
M  V30 3 1 2 4
M  V30 4 2 3 5
M  V30 5 1 3 6
M  V30 6 1 4 7
M  V30 7 1 5 8
M  V30 8 1 5 9
M  V30 9 2 6 10
M  V30 10 1 7 11
M  V30 11 1 8 12
M  V30 12 2 9 13
M  V30 13 2 11 14
M  V30 14 1 11 15
M  V30 15 1 16 12
M  V30 16 1 14 17
M  V30 17 2 15 18
M  V30 18 1 16 19 CFG=3
M  V30 19 1 16 20
M  V30 20 2 17 21
M  V30 21 1 20 22
M  V30 22 1 22 23
M  V30 23 1 23 24
M  V30 24 1 24 25
M  V30 25 1 10 13
M  V30 26 1 18 21
M  V30 END BOND
M  V30 BEGIN COLLECTION
M  V30 MDLV30/STERAC1 ATOMS=(1 16)
M  V30 END COLLECTION
M  V30 END CTAB
M  END
>  <Molecule Name>


>  <status>
-

>  <cas>
54063-53-5

>  <name>
PROPAFENONE

>  <ID>
1178

>  <Smiles>
CCCNCC(COc(cccc1)c1C(CCc1ccccc1)=O)O

$$$$

Actelion Java MolfileCreator 2.0

  0  0  0  0  0  0              0 V3000
M  V30 BEGIN CTAB
M  V30 COUNTS 11 10 0 0 0
M  V30 BEGIN ATOM
M  V30 1 O 4.3301 0.0 0.0 0
M  V30 2 C 3.4641 -0.5 0.0 0
M  V30 3 O 2.598 0.0 0.0 0
M  V30 4 C 3.4641 -1.5 0.0 0
M  V30 5 C 1.732 -0.5 0.0 0 CFG=2
M  V30 6 C 0.866 0.0 0.0 0
M  V30 7 C 1.732 -1.5 0.0 0
M  V30 8 N 0.0 -0.5 0.0 0 CHG=1
M  V30 9 C 0.4999 -1.366 0.0 0
M  V30 10 C -0.866 -0.9999 0.0 0
M  V30 11 C -0.4999 0.366 0.0 0
M  V30 END ATOM
M  V30 BEGIN BOND
M  V30 1 2 1 2
M  V30 2 1 2 3
M  V30 3 1 2 4
M  V30 4 1 5 3 CFG=1
M  V30 5 1 5 6
M  V30 6 1 5 7
M  V30 7 1 6 8
M  V30 8 1 8 9
M  V30 9 1 8 10
M  V30 10 1 8 11
M  V30 END BOND
M  V30 BEGIN COLLECTION
M  V30 MDLV30/STERAC1 ATOMS=(1 5)
M  V30 END COLLECTION
M  V30 END CTAB
M  END
>  <Molecule Name>


>  <status>
-

>  <cas>
55-92-5

>  <name>
METHACHOLINE

>  <ID>
1179

>  <Smiles>
CC(C[N+](C)(C)C)OC(C)=O

$$$$

Actelion Java MolfileCreator 2.0

  0  0  0  0  0  0              0 V3000
M  V30 BEGIN CTAB
M  V30 COUNTS 21 22 0 0 0
M  V30 BEGIN ATOM
M  V30 1 O 5.1961 -4.5 0.0 0
M  V30 2 C 5.1961 -3.5 0.0 0
M  V30 3 N 6.0621 -3.0 0.0 0
M  V30 4 C 4.3301 -2.9999 0.0 0
M  V30 5 C 6.0621 -2.0 0.0 0
M  V30 6 C 4.3301 -2.0 0.0 0
M  V30 7 C 5.1961 -1.5 0.0 0
M  V30 8 C 6.9282 -1.5 0.0 0
M  V30 9 C 5.1961 -0.5 0.0 0
M  V30 10 C 6.9282 -0.5 0.0 0
M  V30 11 O 4.3301 0.0 0.0 0
M  V30 12 C 6.0621 0.0 0.0 0
M  V30 13 C 3.4641 -0.5 0.0 0
M  V30 14 C 2.598 0.0 0.0 0 CFG=1
M  V30 15 O 2.598 1.0 0.0 0
M  V30 16 C 1.732 -0.5 0.0 0
M  V30 17 N 0.866 0.0 0.0 0
M  V30 18 C 0.0 -0.5 0.0 0
M  V30 19 C 0.4999 -1.366 0.0 0
M  V30 20 C -0.866 -0.9999 0.0 0
M  V30 21 C -0.4999 0.366 0.0 0
M  V30 END ATOM
M  V30 BEGIN BOND
M  V30 1 2 1 2
M  V30 2 1 2 3
M  V30 3 1 2 4
M  V30 4 1 3 5
M  V30 5 1 4 6
M  V30 6 2 5 7
M  V30 7 1 5 8
M  V30 8 1 7 9
M  V30 9 2 8 10
M  V30 10 1 9 11
M  V30 11 2 9 12
M  V30 12 1 11 13
M  V30 13 1 14 13
M  V30 14 1 14 15 CFG=3
M  V30 15 1 14 16
M  V30 16 1 16 17
M  V30 17 1 17 18
M  V30 18 1 18 19
M  V30 19 1 18 20
M  V30 20 1 18 21
M  V30 21 1 6 7
M  V30 22 1 10 12
M  V30 END BOND
M  V30 BEGIN COLLECTION
M  V30 MDLV30/STERAC1 ATOMS=(1 14)
M  V30 END COLLECTION
M  V30 END CTAB
M  END
>  <Molecule Name>


>  <status>
-

>  <cas>
51781-06-7

>  <name>
CARTEOLOL

>  <ID>
1180

>  <Smiles>
CC(C)(C)NCC(COc1cccc(N2)c1CCC2=O)O

$$$$

Actelion Java MolfileCreator 2.0

  0  0  0  0  0  0              0 V3000
M  V30 BEGIN CTAB
M  V30 COUNTS 22 23 0 0 0
M  V30 BEGIN ATOM
M  V30 1 O 7.7942 -0.75 0.0 0
M  V30 2 C 9.0932 0.0 0.0 0
M  V30 3 C 6.4951 0.0 0.0 0
M  V30 4 C 10.3923 -0.75 0.0 0
M  V30 5 C 9.0932 1.4999 0.0 0
M  V30 6 C 5.1961 -0.75 0.0 0 CFG=1
M  V30 7 C 11.6913 0.0 0.0 0
M  V30 8 C 10.3923 2.2499 0.0 0
M  V30 9 O 5.1961 -2.25 0.0 0
M  V30 10 C 3.8971 0.0 0.0 0
M  V30 11 C 11.6913 1.4999 0.0 0
M  V30 12 N 2.598 -0.75 0.0 0
M  V30 13 C 12.9903 2.2499 0.0 0
M  V30 14 C 1.299 0.0 0.0 0
M  V30 15 C 14.2894 1.4999 0.0 0
M  V30 16 C 1.299 1.5 0.0 0
M  V30 17 C 0.0 -0.75 0.0 0
M  V30 18 O 15.5884 2.2499 0.0 0
M  V30 19 C 16.8874 1.4999 0.0 0
M  V30 20 C 18.1865 2.2499 0.0 0
M  V30 21 C 19.6865 2.2499 0.0 0
M  V30 22 C 18.9365 3.549 0.0 0
M  V30 END ATOM
M  V30 BEGIN BOND
M  V30 1 1 1 2
M  V30 2 1 1 3
M  V30 3 2 2 4
M  V30 4 1 2 5
M  V30 5 1 6 3
M  V30 6 1 4 7
M  V30 7 2 5 8
M  V30 8 1 6 9 CFG=1
M  V30 9 1 6 10
M  V30 10 2 7 11
M  V30 11 1 10 12
M  V30 12 1 11 13
M  V30 13 1 12 14
M  V30 14 1 13 15
M  V30 15 1 14 16
M  V30 16 1 14 17
M  V30 17 1 15 18
M  V30 18 1 18 19
M  V30 19 1 19 20
M  V30 20 1 20 21
M  V30 21 1 20 22
M  V30 22 1 8 11
M  V30 23 1 21 22
M  V30 END BOND
M  V30 BEGIN COLLECTION
M  V30 MDLV30/STERAC1 ATOMS=(1 6)
M  V30 END COLLECTION
M  V30 END CTAB
M  END
>  <Molecule Name>


>  <status>
-

>  <cas>
63659-18-7

>  <name>
BETAXOLOL

>  <ID>
1181

>  <Smiles>
CC(C)NCC(COc1ccc(CCOCC2CC2)cc1)O

$$$$

Actelion Java MolfileCreator 2.0

  0  0  0  0  0  0              0 V3000
M  V30 BEGIN CTAB
M  V30 COUNTS 21 21 0 0 0
M  V30 BEGIN ATOM
M  V30 1 O 10.3923 2.4999 0.0 0
M  V30 2 C 10.3923 1.4999 0.0 0
M  V30 3 O 11.2583 0.9999 0.0 0
M  V30 4 C 9.5262 0.9999 0.0 0
M  V30 5 C 12.1243 1.4999 0.0 0
M  V30 6 C 8.6602 1.4999 0.0 0
M  V30 7 C 7.7942 0.9999 0.0 0
M  V30 8 C 6.9282 1.4999 0.0 0
M  V30 9 C 7.7942 0.0 0.0 0
M  V30 10 C 6.0621 0.9999 0.0 0
M  V30 11 C 6.9282 -0.5 0.0 0
M  V30 12 C 6.0621 0.0 0.0 0
M  V30 13 O 5.1961 -0.5 0.0 0
M  V30 14 C 4.3301 0.0 0.0 0
M  V30 15 C 3.4641 -0.5 0.0 0 CFG=1
M  V30 16 O 3.4641 -1.5 0.0 0
M  V30 17 C 2.598 0.0 0.0 0
M  V30 18 N 1.732 -0.5 0.0 0
M  V30 19 C 0.866 0.0 0.0 0
M  V30 20 C 0.866 1.0 0.0 0
M  V30 21 C 0.0 -0.5 0.0 0
M  V30 END ATOM
M  V30 BEGIN BOND
M  V30 1 2 1 2
M  V30 2 1 2 3
M  V30 3 1 2 4
M  V30 4 1 3 5
M  V30 5 1 4 6
M  V30 6 1 6 7
M  V30 7 2 7 8
M  V30 8 1 7 9
M  V30 9 1 8 10
M  V30 10 2 9 11
M  V30 11 2 10 12
M  V30 12 1 12 13
M  V30 13 1 13 14
M  V30 14 1 15 14
M  V30 15 1 15 16 CFG=1
M  V30 16 1 15 17
M  V30 17 1 17 18
M  V30 18 1 18 19
M  V30 19 1 19 20
M  V30 20 1 19 21
M  V30 21 1 11 12
M  V30 END BOND
M  V30 BEGIN COLLECTION
M  V30 MDLV30/STERAC1 ATOMS=(1 15)
M  V30 END COLLECTION
M  V30 END CTAB
M  END
>  <Molecule Name>


>  <status>
-

>  <cas>
81147-92-4

>  <name>
ESMOLOL

>  <ID>
1182

>  <Smiles>
CC(C)NCC(COc1ccc(CCC(OC)=O)cc1)O

$$$$

Actelion Java MolfileCreator 2.0

  0  0  0  0  0  0              0 V3000
M  V30 BEGIN CTAB
M  V30 COUNTS 18 19 0 0 0
M  V30 BEGIN ATOM
M  V30 1 S 6.9757 1.4067 0.0 0
M  V30 2 C 6.0621 1.0 0.0 0
M  V30 3 C 7.6448 0.6635 0.0 0
M  V30 4 C 5.1961 1.5 0.0 0
M  V30 5 C 6.1667 0.0054 0.0 0
M  V30 6 C 7.1448 -0.2024 0.0 0
M  V30 7 O 5.1961 2.5 0.0 0
M  V30 8 C 4.3301 1.0 0.0 0
M  V30 9 C 3.4641 1.5 0.0 0
M  V30 10 C 4.3301 0.0 0.0 0
M  V30 11 C 2.598 0.9999 0.0 0
M  V30 12 C 3.4641 -0.4999 0.0 0
M  V30 13 C 2.598 0.0 0.0 0
M  V30 14 C 1.732 -0.5 0.0 0 CFG=2
M  V30 15 C 0.866 0.0 0.0 0
M  V30 16 C 1.732 -1.5 0.0 0
M  V30 17 O 0.866 1.0 0.0 0
M  V30 18 O 0.0 -0.5 0.0 0 CHG=-1
M  V30 END ATOM
M  V30 BEGIN BOND
M  V30 1 1 1 2
M  V30 2 1 1 3
M  V30 3 1 2 4
M  V30 4 2 2 5
M  V30 5 2 3 6
M  V30 6 2 4 7
M  V30 7 1 4 8
M  V30 8 2 8 9
M  V30 9 1 8 10
M  V30 10 1 9 11
M  V30 11 2 10 12
M  V30 12 2 11 13
M  V30 13 1 14 13
M  V30 14 1 14 15
M  V30 15 1 14 16 CFG=1
M  V30 16 2 15 17
M  V30 17 1 15 18
M  V30 18 1 5 6
M  V30 19 1 12 13
M  V30 END BOND
M  V30 BEGIN COLLECTION
M  V30 MDLV30/STERAC1 ATOMS=(1 14)
M  V30 END COLLECTION
M  V30 END CTAB
M  END
>  <Molecule Name>


>  <status>
DISCONTINUED

>  <cas>
40828-46-4

>  <name>
SUPROFEN

>  <ID>
1183

>  <Smiles>
CC(C([O-])=O)c(cc1)ccc1C(c1cccs1)=O

$$$$

Actelion Java MolfileCreator 2.0

  0  0  0  0  0  0              0 V3000
M  V30 BEGIN CTAB
M  V30 COUNTS 13 15 0 0 0
M  V30 BEGIN ATOM
M  V30 1 N 1.6834 0.3386 0.0 0
M  V30 2 C 0.9297 -0.3185 0.0 0 CFG=2
M  V30 3 C 0.0 0.0 0.0 0
M  V30 4 C 1.1221 -1.2998 0.0 0
M  V30 5 C 0.0172 1.0847 0.0 0
M  V30 6 C -0.7406 -0.2764 0.0 0
M  V30 7 C -0.5768 -0.749 0.0 0
M  V30 8 C -0.9986 1.4291 0.0 0 CFG=1
M  V30 9 C -1.9199 0.0655 0.0 0 CFG=2
M  V30 10 C -1.5588 -0.4611 0.0 0 CFG=1
M  V30 11 C -1.8677 1.1055 0.0 0
M  V30 12 C -1.461 0.7879 0.0 0
M  V30 13 C -2.4708 -0.7059 0.0 0
M  V30 END ATOM
M  V30 BEGIN BOND
M  V30 1 1 2 1 CFG=1
M  V30 2 1 2 3
M  V30 3 1 2 4
M  V30 4 1 3 5
M  V30 5 1 3 6
M  V30 6 1 3 7
M  V30 7 1 8 5 CFG=3
M  V30 8 1 9 6 CFG=1
M  V30 9 1 10 7 CFG=3
M  V30 10 1 8 11
M  V30 11 1 8 12
M  V30 12 1 9 13
M  V30 13 1 9 11
M  V30 14 1 10 12
M  V30 15 1 10 13
M  V30 END BOND
M  V30 BEGIN COLLECTION
M  V30 MDLV30/STEABS ATOMS=(3 8 9 10)
M  V30 MDLV30/STERAC1 ATOMS=(1 2)
M  V30 END COLLECTION
M  V30 END CTAB
M  END
>  <Molecule Name>


>  <status>
-

>  <cas>
13392-28-4

>  <name>
RIMANTADINE

>  <ID>
1184

>  <Smiles>
CC(C1(C[C@H](C2)C3)C[C@H]3C[C@H]2C1)N

$$$$
_c001
Actelion Java MolfileCreator 2.0

  0  0  0  0  0  0              0 V3000
M  V30 BEGIN CTAB
M  V30 COUNTS 68 71 0 0 0
M  V30 BEGIN ATOM
M  V30 1 O 6.1668 -8.7985 0.0 0
M  V30 2 C 7.0142 -8.2676 0.0 0
M  V30 3 N 6.578 -7.3677 0.0 0
M  V30 4 C 7.6337 -9.0526 0.0 0
M  V30 5 C 6.3455 -6.3951 0.0 0 CFG=1
M  V30 6 C 5.852 -8.0554 0.0 0
M  V30 7 O 6.8958 -9.7275 0.0 0
M  V30 8 C 8.4811 -9.8536 0.0 0 CFG=2
M  V30 9 C 6.3274 -5.3953 0.0 0
M  V30 10 C 5.3869 -6.1103 0.0 0
M  V30 11 C 4.8935 -7.7705 0.0 0
M  V30 12 O 9.4679 -9.6918 0.0 0
M  V30 13 O 7.5066 -10.0779 0.0 0
M  V30 14 C 8.1278 -10.7891 0.0 0 CFG=2
M  V30 15 O 5.3315 -5.3051 0.0 0
M  V30 16 O 6.5247 -4.415 0.0 0
M  V30 17 C 4.6609 -6.798 0.0 0
M  V30 18 C 10.1015 -10.4655 0.0 0 CFG=1
M  V30 19 C 8.7613 -11.5628 0.0 0
M  V30 20 C 7.141 -10.9509 0.0 0
M  V30 21 C 6.9282 -3.5 0.0 0 CFG=1
M  V30 22 C 11.2668 -10.4247 0.0 0
M  V30 23 C 9.7482 -11.401 0.0 0
M  V30 24 C 6.0621 -3.0 0.0 0 CFG=2
M  V30 25 C 7.5189 -2.6931 0.0 0
M  V30 26 C 12.2506 -10.2451 0.0 0 CFG=2
M  V30 27 C 6.0621 -1.9999 0.0 0
M  V30 28 C 5.1961 -3.5 0.0 0
M  V30 29 C 8.2692 -2.032 0.0 0
M  V30 30 O 12.5354 -11.2037 0.0 0
M  V30 31 C 13.1727 -9.8583 0.0 0
M  V30 32 C 5.1961 -1.4999 0.0 0 CFG=2
M  V30 33 O 7.6932 -1.2146 0.0 0
M  V30 34 C 9.1441 -1.5477 0.0 0 CFG=1
M  V30 35 C 11.8477 -11.9297 0.0 0
M  V30 36 C 13.8472 -9.12 0.0 0
M  V30 37 C 13.7487 -10.6757 0.0 0
M  V30 38 C 5.1961 -0.5 0.0 0
M  V30 39 C 4.3301 -1.9999 0.0 0
M  V30 40 C 10.1415 -1.4756 0.0 0
M  V30 41 C 8.8592 -0.5892 0.0 0
M  V30 42 C 14.6646 -8.5439 0.0 0
M  V30 43 C 4.3301 0.0 0.0 0 CFG=2
M  V30 44 C 3.4641 -1.5 0.0 0
M  V30 45 C 11.1001 -1.1907 0.0 0
M  V30 46 C 14.9667 -7.5907 0.0 0
M  V30 47 O 4.3301 1.0 0.0 0
M  V30 48 C 3.4641 -0.5 0.0 0 CFG=2
M  V30 49 C 12.0897 -1.3346 0.0 0 CFG=2
M  V30 50 C 11.0279 -0.1933 0.0 0
M  V30 51 C 15.4667 -6.7247 0.0 0
M  V30 52 C 3.4641 1.5 0.0 0
M  V30 53 O 2.598 0.0 0.0 0
M  V30 54 O 12.3397 -0.3664 0.0 0
M  V30 55 C 13.0252 -1.6879 0.0 0 CFG=2
M  V30 56 C 15.3407 -5.7326 0.0 0
M  V30 57 C 1.732 -0.5 0.0 0
M  V30 58 O 13.4775 -0.7961 0.0 0
M  V30 59 C 13.8629 -2.2341 0.0 0
M  V30 60 C 15.4308 -4.7367 0.0 0 CFG=1
M  V30 61 C 0.866 0.0 0.0 0
M  V30 62 C 12.9314 0.0415 0.0 0
M  V30 63 O 14.4964 -1.4604 0.0 0
M  V30 64 C 14.5635 -2.9476 0.0 0 CFG=2
M  V30 65 C 15.0945 -3.795 0.0 0
M  V30 66 C 16.4229 -4.6107 0.0 0
M  V30 67 O 0.0 -0.5 0.0 0
M  V30 68 C 15.3486 -2.3281 0.0 0
M  V30 END ATOM
M  V30 BEGIN BOND
M  V30 1 2 1 2
M  V30 2 1 2 3
M  V30 3 1 2 4
M  V30 4 1 5 3 CFG=3
M  V30 5 1 3 6
M  V30 6 2 4 7
M  V30 7 1 8 4
M  V30 8 1 5 9
M  V30 9 1 5 10
M  V30 10 1 6 11
M  V30 11 1 8 12
M  V30 12 1 8 13 CFG=3
M  V30 13 1 14 8
M  V30 14 2 9 15
M  V30 15 1 9 16
M  V30 16 1 10 17
M  V30 17 1 18 12 CFG=1
M  V30 18 1 14 19
M  V30 19 1 14 20 CFG=3
M  V30 20 1 21 16 CFG=1
M  V30 21 1 18 22
M  V30 22 1 18 23
M  V30 23 1 24 21
M  V30 24 1 21 25
M  V30 25 1 26 22
M  V30 26 1 24 27
M  V30 27 1 24 28 CFG=1
M  V30 28 1 25 29
M  V30 29 1 26 30 CFG=1
M  V30 30 1 26 31
M  V30 31 1 32 27 CFG=1
M  V30 32 2 29 33
M  V30 33 1 34 29
M  V30 34 1 30 35
M  V30 35 2 31 36
M  V30 36 1 31 37
M  V30 37 1 32 38
M  V30 38 1 32 39
M  V30 39 1 34 40
M  V30 40 1 34 41 CFG=3
M  V30 41 1 36 42
M  V30 42 1 43 38
M  V30 43 1 39 44
M  V30 44 2 40 45
M  V30 45 2 42 46
M  V30 46 1 43 47 CFG=1
M  V30 47 1 48 43
M  V30 48 1 49 45
M  V30 49 1 45 50
M  V30 50 1 46 51
M  V30 51 1 47 52
M  V30 52 1 48 53 CFG=3
M  V30 53 1 49 54 CFG=3
M  V30 54 1 55 49
M  V30 55 2 51 56
M  V30 56 1 53 57
M  V30 57 1 55 58 CFG=3
M  V30 58 1 55 59
M  V30 59 1 60 56
M  V30 60 1 57 61
M  V30 61 1 58 62
M  V30 62 2 59 63
M  V30 63 1 64 59
M  V30 64 1 60 65
M  V30 65 1 60 66 CFG=1
M  V30 66 1 61 67
M  V30 67 1 64 68 CFG=1
M  V30 68 1 11 17
M  V30 69 1 19 23
M  V30 70 1 44 48
M  V30 71 1 64 65
M  V30 END BOND
M  V30 BEGIN COLLECTION
M  V30 MDLV30/STERAC1 ATOMS=(15 5 8 14 18 21 24 26 32 34 43 48 49 55 60 64)
M  V30 END COLLECTION
M  V30 END CTAB
M  END
>  <Molecule Name>
_c001

>  <status>
-

>  <cas>
159351-69-6

>  <name>
EVEROLIMUS

>  <ID>
1185

>  <Smiles>
C[C@@H](C[C@@H](CC[C@@H]1OCCO)C[C@@H]1OC)[C@@H](CC([C@H](C)/C=C(\C)/[C@@H]([C@@H](C([C@@H](C)C[C@@H](C)/C=C/C=C/C=C(\C)/[C@H](C[C@@H](CC[C@@H]1C)O[C@@]1(C(C(N1[C@@H]2CCCC1)=O)=O)O)OC)=O)OC)O)=O)OC2=O

$$$$

Actelion Java MolfileCreator 2.0

  0  0  0  0  0  0              0 V3000
M  V30 BEGIN CTAB
M  V30 COUNTS 28 29 0 0 0
M  V30 BEGIN ATOM
M  V30 1 Cl 7.1782 2.4999 0.0 0
M  V30 2 C 6.0621 2.9999 0.0 0
M  V30 3 C 5.1961 2.5 0.0 0
M  V30 4 C 6.0621 3.9999 0.0 0
M  V30 5 C 4.3301 3.0 0.0 0
M  V30 6 C 5.1961 1.4999 0.0 0 CFG=2
M  V30 7 C 5.1961 4.5 0.0 0
M  V30 8 C 4.3301 4.0 0.0 0
M  V30 9 C 4.3301 1.0 0.0 0
M  V30 10 C 6.0621 0.9999 0.0 0
M  V30 11 C 4.3301 0.0 0.0 0
M  V30 12 C 3.4641 1.5 0.0 0
M  V30 13 C 6.0621 0.0 0.0 0
M  V30 14 C 6.9282 1.4999 0.0 0
M  V30 15 N 5.1961 -0.5 0.0 0
M  V30 16 C 3.4641 -0.5 0.0 0
M  V30 17 O 2.598 1.0 0.0 0
M  V30 18 O 3.4641 2.5 0.0 0
M  V30 19 C 6.9282 -0.5 0.0 0
M  V30 20 O 6.9282 2.7499 0.0 0
M  V30 21 O 7.7942 0.9999 0.0 0
M  V30 22 O 2.598 0.0 0.0 0
M  V30 23 C 2.598 3.0 0.0 0
M  V30 24 C 8.6602 1.4999 0.0 0
M  V30 25 C 1.732 -0.5 0.0 0
M  V30 26 C 2.598 4.0 0.0 0
M  V30 27 C 0.866 0.0 0.0 0
M  V30 28 N 0.0 -0.5 0.0 0
M  V30 END ATOM
M  V30 BEGIN BOND
M  V30 1 1 1 2
M  V30 2 2 2 3
M  V30 3 1 2 4
M  V30 4 1 3 5
M  V30 5 1 6 3 CFG=1
M  V30 6 2 4 7
M  V30 7 2 5 8
M  V30 8 1 6 9
M  V30 9 1 6 10
M  V30 10 2 9 11
M  V30 11 1 9 12
M  V30 12 2 10 13
M  V30 13 1 10 14
M  V30 14 1 11 15
M  V30 15 1 11 16
M  V30 16 2 12 17
M  V30 17 1 12 18
M  V30 18 1 13 19
M  V30 19 2 14 20
M  V30 20 1 14 21
M  V30 21 1 16 22
M  V30 22 1 18 23
M  V30 23 1 21 24
M  V30 24 1 22 25
M  V30 25 1 23 26
M  V30 26 1 25 27
M  V30 27 1 27 28
M  V30 28 1 7 8
M  V30 29 1 13 15
M  V30 END BOND
M  V30 BEGIN COLLECTION
M  V30 MDLV30/STERAC1 ATOMS=(1 6)
M  V30 END COLLECTION
M  V30 END CTAB
M  END
>  <Molecule Name>


>  <status>
-

>  <cas>
88150-42-9

>  <name>
AMLODIPINE

>  <ID>
1186

>  <Smiles>
CCOC(C(C1c(cccc2)c2Cl)=C(COCCN)NC(C)=C1C(OC)=O)=O

$$$$
_c001
Actelion Java MolfileCreator 2.0

  0  0  0  0  0  0              0 V3000
M  V30 BEGIN CTAB
M  V30 COUNTS 18 18 0 0 0
M  V30 BEGIN ATOM
M  V30 1 O 3.4641 -1.5 0.0 0
M  V30 2 C 3.4641 -0.5 0.0 0
M  V30 3 N 2.598 0.0 0.0 0
M  V30 4 C 4.3301 0.0 0.0 0
M  V30 5 C 1.732 -0.5 0.0 0
M  V30 6 N 5.1961 -0.5 0.0 0
M  V30 7 C 0.866 0.0 0.0 0 CFG=2
M  V30 8 O 0.866 1.0 0.0 0
M  V30 9 C 0.0 -0.5 0.0 0
M  V30 10 C -0.866 0.0 0.0 0
M  V30 11 C 0.0 -1.4999 0.0 0
M  V30 12 O -0.866 1.0 0.0 0
M  V30 13 C -1.732 -0.4999 0.0 0
M  V30 14 C -0.866 -1.9999 0.0 0
M  V30 15 C -1.732 1.5 0.0 0
M  V30 16 C -1.732 -1.4999 0.0 0
M  V30 17 O -0.866 -2.9999 0.0 0
M  V30 18 C 0.0 -3.4999 0.0 0
M  V30 END ATOM
M  V30 BEGIN BOND
M  V30 1 2 1 2
M  V30 2 1 2 3
M  V30 3 1 2 4
M  V30 4 1 3 5
M  V30 5 1 4 6
M  V30 6 1 7 5
M  V30 7 1 7 8 CFG=1
M  V30 8 1 7 9
M  V30 9 2 9 10
M  V30 10 1 9 11
M  V30 11 1 10 12
M  V30 12 1 10 13
M  V30 13 2 11 14
M  V30 14 1 12 15
M  V30 15 2 13 16
M  V30 16 1 14 17
M  V30 17 1 17 18
M  V30 18 1 14 16
M  V30 END BOND
M  V30 BEGIN COLLECTION
M  V30 MDLV30/STERAC1 ATOMS=(1 7)
M  V30 END COLLECTION
M  V30 END CTAB
M  END
>  <Molecule Name>
_c001

>  <status>
-

>  <cas>
42794-76-3

>  <name>
MIDODRINE

>  <ID>
1187

>  <Smiles>
COc(cc1)cc(C(CNC(CN)=O)O)c1OC

$$$$

Actelion Java MolfileCreator 2.0

  0  0  0  0  0  0              0 V3000
M  V30 BEGIN CTAB
M  V30 COUNTS 25 26 0 0 0
M  V30 BEGIN ATOM
M  V30 1 Cl 4.1358 1.8447 0.0 0
M  V30 2 C 5.2581 2.2768 0.0 0
M  V30 3 C 5.2581 3.7947 0.0 0
M  V30 4 C 6.5726 1.5178 0.0 0
M  V30 5 Cl 3.9436 4.5536 0.0 0
M  V30 6 C 6.5726 4.5536 0.0 0
M  V30 7 C 7.8872 2.2768 0.0 0
M  V30 8 C 6.5726 0.0 0.0 0 CFG=2
M  V30 9 C 7.8872 3.7947 0.0 0
M  V30 10 C 5.2581 -0.7589 0.0 0
M  V30 11 C 7.8872 -0.7589 0.0 0
M  V30 12 C 5.2581 -2.2768 0.0 0
M  V30 13 C 3.9436 0.0 0.0 0
M  V30 14 C 7.8872 -2.2768 0.0 0
M  V30 15 C 9.2017 0.0 0.0 0
M  V30 16 N 6.5726 -3.0357 0.0 0
M  V30 17 C 3.9436 -3.0357 0.0 0
M  V30 18 O 2.629 -0.7589 0.0 0
M  V30 19 O 3.8473 1.3542 0.0 0
M  V30 20 C 9.2017 -3.0357 0.0 0
M  V30 21 O 10.5162 -0.7589 0.0 0
M  V30 22 O 9.2017 1.5178 0.0 0
M  V30 23 C 2.629 2.2768 0.0 0
M  V30 24 C 10.5162 2.2768 0.0 0
M  V30 25 C 2.629 3.7947 0.0 0
M  V30 END ATOM
M  V30 BEGIN BOND
M  V30 1 1 1 2
M  V30 2 2 2 3
M  V30 3 1 2 4
M  V30 4 1 3 5
M  V30 5 1 3 6
M  V30 6 2 4 7
M  V30 7 1 8 4 CFG=1
M  V30 8 2 6 9
M  V30 9 1 8 10
M  V30 10 1 8 11
M  V30 11 2 10 12
M  V30 12 1 10 13
M  V30 13 2 11 14
M  V30 14 1 11 15
M  V30 15 1 12 16
M  V30 16 1 12 17
M  V30 17 2 13 18
M  V30 18 1 13 19
M  V30 19 1 14 20
M  V30 20 2 15 21
M  V30 21 1 15 22
M  V30 22 1 19 23
M  V30 23 1 22 24
M  V30 24 1 23 25
M  V30 25 1 7 9
M  V30 26 1 14 16
M  V30 END BOND
M  V30 BEGIN COLLECTION
M  V30 MDLV30/STERAC1 ATOMS=(1 8)
M  V30 END COLLECTION
M  V30 END CTAB
M  END
>  <Molecule Name>


>  <status>
-

>  <cas>
72509-76-3

>  <name>
FELODIPINE

>  <ID>
1188

>  <Smiles>
CCOC(C(C1c2cccc(Cl)c2Cl)=C(C)NC(C)=C1C(OC)=O)=O

$$$$

Actelion Java MolfileCreator 2.0

  0  0  0  0  0  0              0 V3000
M  V30 BEGIN CTAB
M  V30 COUNTS 27 29 0 0 0
M  V30 BEGIN ATOM
M  V30 1 Cl 11.2583 0.0 0.0 0
M  V30 2 C 10.3923 -0.5 0.0 0
M  V30 3 C 9.5262 0.0 0.0 0
M  V30 4 C 10.3923 -1.5 0.0 0
M  V30 5 C 8.6602 -0.5 0.0 0
M  V30 6 C 9.5262 -2.0 0.0 0
M  V30 7 C 8.6602 -1.5 0.0 0
M  V30 8 C 7.7942 -2.0 0.0 0 CFG=1
M  V30 9 N 6.9282 -1.5 0.0 0
M  V30 10 C 7.7942 -3.0 0.0 0
M  V30 11 C 6.9282 -0.5 0.0 0
M  V30 12 C 6.0621 -2.0 0.0 0
M  V30 13 C 6.9282 -3.4999 0.0 0
M  V30 14 C 8.6602 -3.5 0.0 0
M  V30 15 C 6.0621 0.0 0.0 0
M  V30 16 C 5.1961 -1.5 0.0 0
M  V30 17 C 6.9282 -4.5 0.0 0
M  V30 18 C 8.6602 -4.5 0.0 0
M  V30 19 N 5.1961 -0.5 0.0 0
M  V30 20 C 7.7942 -5.0 0.0 0
M  V30 21 C 4.3301 0.0 0.0 0
M  V30 22 C 3.4641 -0.5 0.0 0
M  V30 23 O 2.598 0.0 0.0 0
M  V30 24 C 1.732 -0.5 0.0 0
M  V30 25 C 0.866 0.0 0.0 0
M  V30 26 O 0.866 1.0 0.0 0
M  V30 27 O 0.0 -0.5 0.0 0 CHG=-1
M  V30 END ATOM
M  V30 BEGIN BOND
M  V30 1 1 1 2
M  V30 2 2 2 3
M  V30 3 1 2 4
M  V30 4 1 3 5
M  V30 5 2 4 6
M  V30 6 2 5 7
M  V30 7 1 8 7
M  V30 8 1 8 9 CFG=3
M  V30 9 1 8 10
M  V30 10 1 9 11
M  V30 11 1 9 12
M  V30 12 2 10 13
M  V30 13 1 10 14
M  V30 14 1 11 15
M  V30 15 1 12 16
M  V30 16 1 13 17
M  V30 17 2 14 18
M  V30 18 1 15 19
M  V30 19 2 17 20
M  V30 20 1 19 21
M  V30 21 1 21 22
M  V30 22 1 22 23
M  V30 23 1 23 24
M  V30 24 1 24 25
M  V30 25 2 25 26
M  V30 26 1 25 27
M  V30 27 1 6 7
M  V30 28 1 16 19
M  V30 29 1 18 20
M  V30 END BOND
M  V30 BEGIN COLLECTION
M  V30 MDLV30/STERAC1 ATOMS=(1 8)
M  V30 END COLLECTION
M  V30 END CTAB
M  END
>  <Molecule Name>


>  <status>
-

>  <cas>
83881-52-1

>  <name>
LEVOCETIRIZINE

>  <ID>
1189

>  <Smiles>
[O-]C(COCCN(CC1)CCN1C(c1ccccc1)c(cc1)ccc1Cl)=O

$$$$

Actelion Java MolfileCreator 2.0

  0  0  0  0  0  0              0 V3000
M  V30 BEGIN CTAB
M  V30 COUNTS 22 22 0 0 0
M  V30 BEGIN ATOM
M  V30 1 O 10.3923 1.4999 0.0 0
M  V30 2 C 9.5262 0.9999 0.0 0
M  V30 3 O 8.6602 1.4999 0.0 0
M  V30 4 C 9.5262 0.0 0.0 0
M  V30 5 C 7.7942 0.9999 0.0 0
M  V30 6 C 6.9282 1.4999 0.0 0
M  V30 7 C 7.7942 0.0 0.0 0
M  V30 8 C 6.0621 0.9999 0.0 0
M  V30 9 C 6.9282 2.4999 0.0 0
M  V30 10 C 6.9282 -0.5 0.0 0
M  V30 11 C 8.6602 -0.5 0.0 0
M  V30 12 C 6.0621 0.0 0.0 0
M  V30 13 C 5.1961 1.5 0.0 0
M  V30 14 O 5.1961 -0.5 0.0 0
M  V30 15 C 4.3301 0.0 0.0 0
M  V30 16 C 3.4641 -0.5 0.0 0 CFG=1
M  V30 17 O 3.4641 -1.5 0.0 0
M  V30 18 C 2.598 0.0 0.0 0
M  V30 19 N 1.732 -0.5 0.0 0
M  V30 20 C 0.866 0.0 0.0 0
M  V30 21 C 0.866 1.0 0.0 0
M  V30 22 C 0.0 -0.5 0.0 0
M  V30 END ATOM
M  V30 BEGIN BOND
M  V30 1 2 1 2
M  V30 2 1 2 3
M  V30 3 1 2 4
M  V30 4 1 3 5
M  V30 5 2 5 6
M  V30 6 1 5 7
M  V30 7 1 6 8
M  V30 8 1 6 9
M  V30 9 2 7 10
M  V30 10 1 7 11
M  V30 11 2 8 12
M  V30 12 1 8 13
M  V30 13 1 12 14
M  V30 14 1 14 15
M  V30 15 1 16 15
M  V30 16 1 16 17 CFG=1
M  V30 17 1 16 18
M  V30 18 1 18 19
M  V30 19 1 19 20
M  V30 20 1 20 21
M  V30 21 1 20 22
M  V30 22 1 10 12
M  V30 END BOND
M  V30 BEGIN COLLECTION
M  V30 MDLV30/STERAC1 ATOMS=(1 16)
M  V30 END COLLECTION
M  V30 END CTAB
M  END
>  <Molecule Name>


>  <status>
DISCONTINUED

>  <cas>
22664-55-7

>  <name>
METIPRANOLOL

>  <ID>
1190

>  <Smiles>
CC(C)NCC(COc(cc1C)c(C)c(C)c1OC(C)=O)O

$$$$

Actelion Java MolfileCreator 2.0

  0  0  0  0  0  0              0 V3000
M  V30 BEGIN CTAB
M  V30 COUNTS 23 23 0 0 0
M  V30 BEGIN ATOM
M  V30 1 O 5.1961 -0.5 0.0 0
M  V30 2 C 6.0621 0.0 0.0 0
M  V30 3 C 4.3301 0.0 0.0 0
M  V30 4 C 6.9282 -0.5 0.0 0
M  V30 5 C 6.0621 0.9999 0.0 0
M  V30 6 C 3.4641 -0.5 0.0 0 CFG=1
M  V30 7 C 7.7942 0.0 0.0 0
M  V30 8 C 6.9282 1.4999 0.0 0
M  V30 9 O 3.4641 -1.5 0.0 0
M  V30 10 C 2.598 0.0 0.0 0
M  V30 11 C 7.7942 0.9999 0.0 0
M  V30 12 N 1.732 -0.5 0.0 0
M  V30 13 C 8.6602 1.4999 0.0 0
M  V30 14 C 0.866 0.0 0.0 0
M  V30 15 O 9.5262 0.9999 0.0 0
M  V30 16 C 0.866 1.0 0.0 0
M  V30 17 C 0.0 -0.5 0.0 0
M  V30 18 C 10.3923 1.4999 0.0 0
M  V30 19 C 11.2583 0.9999 0.0 0
M  V30 20 O 12.1243 1.4999 0.0 0
M  V30 21 C 12.9903 0.9999 0.0 0
M  V30 22 C 12.9903 0.0 0.0 0
M  V30 23 C 13.8564 1.4999 0.0 0
M  V30 END ATOM
M  V30 BEGIN BOND
M  V30 1 1 1 2
M  V30 2 1 1 3
M  V30 3 2 2 4
M  V30 4 1 2 5
M  V30 5 1 6 3
M  V30 6 1 4 7
M  V30 7 2 5 8
M  V30 8 1 6 9 CFG=1
M  V30 9 1 6 10
M  V30 10 2 7 11
M  V30 11 1 10 12
M  V30 12 1 11 13
M  V30 13 1 12 14
M  V30 14 1 13 15
M  V30 15 1 14 16
M  V30 16 1 14 17
M  V30 17 1 15 18
M  V30 18 1 18 19
M  V30 19 1 19 20
M  V30 20 1 20 21
M  V30 21 1 21 22
M  V30 22 1 21 23
M  V30 23 1 8 11
M  V30 END BOND
M  V30 BEGIN COLLECTION
M  V30 MDLV30/STERAC1 ATOMS=(1 6)
M  V30 END COLLECTION
M  V30 END CTAB
M  END
>  <Molecule Name>


>  <status>
-

>  <cas>
66722-44-9

>  <name>
BISOPROLOL

>  <ID>
1191

>  <Smiles>
CC(C)NCC(COc1ccc(COCCOC(C)C)cc1)O

$$$$

Actelion Java MolfileCreator 2.0

  0  0  0  0  0  0              0 V3000
M  V30 BEGIN CTAB
M  V30 COUNTS 22 25 0 0 0
M  V30 BEGIN ATOM
M  V30 1 O 0.866 -1.9999 0.0 0
M  V30 2 C 1.732 -1.4999 0.0 0
M  V30 3 C 2.598 -1.9999 0.0 0
M  V30 4 C 1.732 -0.5 0.0 0 CFG=2
M  V30 5 C 2.8059 -2.9781 0.0 0
M  V30 6 C 3.4641 -1.5 0.0 0
M  V30 7 C 2.598 0.0 0.0 0
M  V30 8 C 0.866 0.0 0.0 0
M  V30 9 C 3.8005 -3.0826 0.0 0
M  V30 10 C 2.2182 -3.7871 0.0 0
M  V30 11 N 4.2072 -2.1691 0.0 0
M  V30 12 C 3.4641 -0.5 0.0 0
M  V30 13 N 0.0 -0.5 0.0 0
M  V30 14 C 4.2072 -3.9962 0.0 0
M  V30 15 C 2.6249 -4.7007 0.0 0
M  V30 16 C 5.1853 -1.9612 0.0 0
M  V30 17 C -0.9135 -0.0932 0.0 0
M  V30 18 C -0.1045 -1.4945 0.0 0
M  V30 19 C 3.6194 -4.8052 0.0 0
M  V30 20 N -1.5826 -0.8364 0.0 0
M  V30 21 C -1.1214 0.8848 0.0 0
M  V30 22 C -1.0826 -1.7024 0.0 0
M  V30 END ATOM
M  V30 BEGIN BOND
M  V30 1 2 1 2
M  V30 2 1 2 3
M  V30 3 1 4 2
M  V30 4 1 3 5
M  V30 5 2 3 6
M  V30 6 1 4 7
M  V30 7 1 4 8 CFG=1
M  V30 8 2 5 9
M  V30 9 1 5 10
M  V30 10 1 6 11
M  V30 11 1 6 12
M  V30 12 1 8 13
M  V30 13 1 9 14
M  V30 14 2 10 15
M  V30 15 1 11 16
M  V30 16 1 13 17
M  V30 17 1 13 18
M  V30 18 2 14 19
M  V30 19 2 17 20
M  V30 20 1 17 21
M  V30 21 2 18 22
M  V30 22 1 7 12
M  V30 23 1 9 11
M  V30 24 1 15 19
M  V30 25 1 20 22
M  V30 END BOND
M  V30 BEGIN COLLECTION
M  V30 MDLV30/STERAC1 ATOMS=(1 4)
M  V30 END COLLECTION
M  V30 END CTAB
M  END
>  <Molecule Name>


>  <status>
-

>  <cas>
99614-02-5

>  <name>
ONDANSETRON

>  <ID>
1192

>  <Smiles>
Cc1nccn1CC(CCc1c2c(cccc3)c3n1C)C2=O

$$$$

Actelion Java MolfileCreator 2.0

  0  0  0  0  0  0              0 V3000
M  V30 BEGIN CTAB
M  V30 COUNTS 25 27 0 0 0
M  V30 BEGIN ATOM
M  V30 1 F 0.0 -1.4999 0.0 0
M  V30 2 C 0.866 -1.9999 0.0 0
M  V30 3 C 0.866 -2.9999 0.0 0
M  V30 4 C 1.732 -1.5 0.0 0
M  V30 5 N 0.0 -3.4999 0.0 0
M  V30 6 C 1.732 -3.5 0.0 0
M  V30 7 N 1.732 -0.5 0.0 0
M  V30 8 C 2.598 -1.9999 0.0 0
M  V30 9 C -0.866 -2.9999 0.0 0
M  V30 10 C 0.0 -4.4999 0.0 0
M  V30 11 F 1.732 -4.5 0.0 0
M  V30 12 C 2.598 -3.0 0.0 0
M  V30 13 C 2.598 0.0 0.0 0
M  V30 14 C 0.866 0.0 0.0 0
M  V30 15 C 3.4641 -1.5 0.0 0
M  V30 16 C -1.732 -3.4999 0.0 0 CFG=1
M  V30 17 C -0.866 -4.9999 0.0 0
M  V30 18 C 3.4641 -0.5 0.0 0
M  V30 19 C 0.0 -0.5 0.0 0
M  V30 20 O 4.3301 -2.0 0.0 0
M  V30 21 N -1.732 -4.4999 0.0 0
M  V30 22 C -2.598 -2.9999 0.0 0
M  V30 23 C 4.3301 0.0 0.0 0
M  V30 24 O 5.1961 -0.5 0.0 0
M  V30 25 O 4.3301 0.9999 0.0 0 CHG=-1
M  V30 END ATOM
M  V30 BEGIN BOND
M  V30 1 1 1 2
M  V30 2 2 2 3
M  V30 3 1 2 4
M  V30 4 1 3 5
M  V30 5 1 3 6
M  V30 6 1 4 7
M  V30 7 2 4 8
M  V30 8 1 5 9
M  V30 9 1 5 10
M  V30 10 1 6 11
M  V30 11 2 6 12
M  V30 12 1 7 13
M  V30 13 1 7 14
M  V30 14 1 8 15
M  V30 15 1 16 9
M  V30 16 1 10 17
M  V30 17 2 13 18
M  V30 18 1 14 19
M  V30 19 2 15 20
M  V30 20 1 16 21
M  V30 21 1 16 22 CFG=1
M  V30 22 1 18 23
M  V30 23 2 23 24
M  V30 24 1 23 25
M  V30 25 1 8 12
M  V30 26 1 15 18
M  V30 27 1 17 21
M  V30 END BOND
M  V30 BEGIN COLLECTION
M  V30 MDLV30/STERAC1 ATOMS=(1 16)
M  V30 END COLLECTION
M  V30 END CTAB
M  END
>  <Molecule Name>


>  <status>
DISCONTINUED

>  <cas>
98079-51-7

>  <name>
LOMEFLOXACIN

>  <ID>
1193

>  <Smiles>
CCN(C=C1C([O-])=O)c(c(F)c(c(F)c2)N3CC(C)NCC3)c2C1=O

$$$$

Actelion Java MolfileCreator 2.0

  0  0  0  0  0  0              0 V3000
M  V30 BEGIN CTAB
M  V30 COUNTS 10 9 0 0 0
M  V30 BEGIN ATOM
M  V30 1 F 3.9641 0.366 0.0 0
M  V30 2 C 3.4641 -0.5 0.0 0
M  V30 3 F 4.3301 -0.9999 0.0 0
M  V30 4 F 2.9641 -1.366 0.0 0
M  V30 5 C 2.598 0.0 0.0 0 CFG=2
M  V30 6 F 2.598 1.0 0.0 0
M  V30 7 O 1.732 -0.5 0.0 0
M  V30 8 C 0.866 0.0 0.0 0
M  V30 9 F 0.866 1.0 0.0 0
M  V30 10 F 0.0 -0.5 0.0 0
M  V30 END ATOM
M  V30 BEGIN BOND
M  V30 1 1 1 2
M  V30 2 1 2 3
M  V30 3 1 2 4
M  V30 4 1 5 2
M  V30 5 1 5 6 CFG=1
M  V30 6 1 5 7
M  V30 7 1 7 8
M  V30 8 1 8 9
M  V30 9 1 8 10
M  V30 END BOND
M  V30 BEGIN COLLECTION
M  V30 MDLV30/STERAC1 ATOMS=(1 5)
M  V30 END COLLECTION
M  V30 END CTAB
M  END
>  <Molecule Name>


>  <status>
-

>  <cas>
57041-67-5

>  <name>
DESFLURANE

>  <ID>
1194

>  <Smiles>
FC(C(F)(F)F)OC(F)F

$$$$

Actelion Java MolfileCreator 2.0

  0  0  0  0  0  0              0 V3000
M  V30 BEGIN CTAB
M  V30 COUNTS 33 35 0 0 0
M  V30 BEGIN ATOM
M  V30 1 Cl 9.5262 1.0 0.0 0
M  V30 2 C 9.5262 0.0 0.0 0
M  V30 3 C 8.6602 -0.4999 0.0 0
M  V30 4 C 10.3923 -0.4999 0.0 0
M  V30 5 C 8.6602 -1.5 0.0 0
M  V30 6 C 7.7942 0.0 0.0 0
M  V30 7 C 10.3923 -1.4999 0.0 0
M  V30 8 C 7.7942 -2.0 0.0 0
M  V30 9 C 9.5262 -1.9999 0.0 0
M  V30 10 C 6.9282 -0.5 0.0 0
M  V30 11 Cl 11.2583 -1.9999 0.0 0
M  V30 12 C 6.9282 -1.4999 0.0 0
M  V30 13 C 7.7942 -2.9999 0.0 0
M  V30 14 C 6.0621 0.0 0.0 0 CFG=1
M  V30 15 C 6.0621 -2.0 0.0 0
M  V30 16 C 6.9282 -3.4999 0.0 0
M  V30 17 O 6.0621 0.9999 0.0 0
M  V30 18 C 5.1961 -0.5 0.0 0
M  V30 19 C 6.0621 -3.0 0.0 0
M  V30 20 C 6.9282 -4.4999 0.0 0
M  V30 21 C 4.3301 0.0 0.0 0
M  V30 22 F 7.9282 -4.4999 0.0 0
M  V30 23 F 6.9282 -5.4999 0.0 0
M  V30 24 F 5.9282 -4.5 0.0 0
M  V30 25 N 3.4641 -0.5 0.0 0
M  V30 26 C 3.4641 -1.5 0.0 0
M  V30 27 C 2.598 0.0 0.0 0
M  V30 28 C 4.3301 -2.0 0.0 0
M  V30 29 C 1.732 -0.5 0.0 0
M  V30 30 C 4.3301 -3.0 0.0 0
M  V30 31 C 0.866 0.0 0.0 0
M  V30 32 C 5.1961 -3.5 0.0 0
M  V30 33 C 0.0 -0.5 0.0 0
M  V30 END ATOM
M  V30 BEGIN BOND
M  V30 1 1 1 2
M  V30 2 1 2 3
M  V30 3 2 2 4
M  V30 4 1 3 5
M  V30 5 2 3 6
M  V30 6 1 4 7
M  V30 7 2 5 8
M  V30 8 1 5 9
M  V30 9 1 6 10
M  V30 10 1 7 11
M  V30 11 1 8 12
M  V30 12 1 8 13
M  V30 13 1 14 10
M  V30 14 1 12 15
M  V30 15 2 13 16
M  V30 16 1 14 17 CFG=3
M  V30 17 1 14 18
M  V30 18 2 15 19
M  V30 19 1 16 20
M  V30 20 1 18 21
M  V30 21 1 20 22
M  V30 22 1 20 23
M  V30 23 1 20 24
M  V30 24 1 21 25
M  V30 25 1 25 26
M  V30 26 1 25 27
M  V30 27 1 26 28
M  V30 28 1 27 29
M  V30 29 1 28 30
M  V30 30 1 29 31
M  V30 31 1 30 32
M  V30 32 1 31 33
M  V30 33 2 7 9
M  V30 34 2 10 12
M  V30 35 1 16 19
M  V30 END BOND
M  V30 BEGIN COLLECTION
M  V30 MDLV30/STERAC1 ATOMS=(1 14)
M  V30 END COLLECTION
M  V30 END CTAB
M  END
>  <Molecule Name>


>  <status>
DISCONTINUED

>  <cas>
69756-53-2

>  <name>
HALOFANTRINE

>  <ID>
1195

>  <Smiles>
CCCCN(CCCC)CCC(c1c(ccc(C(F)(F)F)c2)c2c(cc(cc2Cl)Cl)c2c1)O

$$$$

Actelion Java MolfileCreator 2.0

  0  0  0  0  0  0              0 V3000
M  V30 BEGIN CTAB
M  V30 COUNTS 30 33 0 0 0
M  V30 BEGIN ATOM
M  V30 1 O 6.9282 -0.5 0.0 0
M  V30 2 C 7.7942 0.0 0.0 0
M  V30 3 C 6.0621 0.0 0.0 0
M  V30 4 C 7.7942 0.9999 0.0 0
M  V30 5 C 8.6602 -0.4999 0.0 0
M  V30 6 C 5.1961 -0.5 0.0 0 CFG=1
M  V30 7 C 8.6602 1.5 0.0 0
M  V30 8 C 7.051 1.6691 0.0 0
M  V30 9 C 9.5262 0.0 0.0 0
M  V30 10 O 5.1961 -1.4999 0.0 0
M  V30 11 C 4.3301 0.0 0.0 0
M  V30 12 N 8.4523 2.4781 0.0 0
M  V30 13 C 9.5262 1.0 0.0 0
M  V30 14 C 7.4578 2.5826 0.0 0
M  V30 15 C 6.0565 1.5646 0.0 0
M  V30 16 N 3.4641 -0.5 0.0 0
M  V30 17 C 6.87 3.3916 0.0 0
M  V30 18 C 5.4687 2.3736 0.0 0
M  V30 19 C 2.598 0.0 0.0 0
M  V30 20 C 5.8755 3.2871 0.0 0
M  V30 21 C 1.732 -0.5 0.0 0
M  V30 22 O 0.866 0.0 0.0 0
M  V30 23 C 0.0 -0.5 0.0 0
M  V30 24 C -0.866 0.0 0.0 0
M  V30 25 C 0.0 -1.4999 0.0 0
M  V30 26 O -0.866 1.0 0.0 0
M  V30 27 C -1.732 -0.4999 0.0 0
M  V30 28 C -0.866 -1.9999 0.0 0
M  V30 29 C -1.732 1.5 0.0 0
M  V30 30 C -1.732 -1.4999 0.0 0
M  V30 END ATOM
M  V30 BEGIN BOND
M  V30 1 1 1 2
M  V30 2 1 1 3
M  V30 3 2 2 4
M  V30 4 1 2 5
M  V30 5 1 6 3
M  V30 6 1 4 7
M  V30 7 1 4 8
M  V30 8 2 5 9
M  V30 9 1 6 10 CFG=1
M  V30 10 1 6 11
M  V30 11 1 7 12
M  V30 12 2 7 13
M  V30 13 2 8 14
M  V30 14 1 8 15
M  V30 15 1 11 16
M  V30 16 1 14 17
M  V30 17 2 15 18
M  V30 18 1 16 19
M  V30 19 2 17 20
M  V30 20 1 19 21
M  V30 21 1 21 22
M  V30 22 1 22 23
M  V30 23 2 23 24
M  V30 24 1 23 25
M  V30 25 1 24 26
M  V30 26 1 24 27
M  V30 27 2 25 28
M  V30 28 1 26 29
M  V30 29 2 27 30
M  V30 30 1 9 13
M  V30 31 1 12 14
M  V30 32 1 18 20
M  V30 33 1 28 30
M  V30 END BOND
M  V30 BEGIN COLLECTION
M  V30 MDLV30/STERAC1 ATOMS=(1 6)
M  V30 END COLLECTION
M  V30 END CTAB
M  END
>  <Molecule Name>


>  <status>
-

>  <cas>
72956-09-3

>  <name>
CARVEDILOL

>  <ID>
1196

>  <Smiles>
COc(cccc1)c1OCCNCC(COc1c(c(cccc2)c2[nH]2)c2ccc1)O

$$$$

Actelion Java MolfileCreator 2.0

  0  0  0  0  0  0              0 V3000
M  V30 BEGIN CTAB
M  V30 COUNTS 29 30 0 0 0
M  V30 BEGIN ATOM
M  V30 1 S 6.4952 0.0 0.0 0
M  V30 2 O 7.9951 0.0 0.0 0
M  V30 3 O 7.2451 -1.299 0.0 0
M  V30 4 C 6.4952 1.5 0.0 0
M  V30 5 C 5.1961 -0.75 0.0 0
M  V30 6 C 5.1961 2.25 0.0 0
M  V30 7 C 7.7942 2.25 0.0 0
M  V30 8 C 3.8971 0.0 0.0 0 CFG=2
M  V30 9 C 5.1961 3.75 0.0 0
M  V30 10 C 7.7942 3.75 0.0 0
M  V30 11 O 4.6471 1.299 0.0 0
M  V30 12 C 2.598 -0.75 0.0 0
M  V30 13 C 3.1471 1.299 0.0 0
M  V30 14 C 6.4952 4.5 0.0 0
M  V30 15 O 2.598 -2.25 0.0 0
M  V30 16 N 1.299 0.0 0.0 0
M  V30 17 F 6.4952 6.0 0.0 0
M  V30 18 C 0.0 -0.75 0.0 0
M  V30 19 C -1.299 0.0 0.0 0
M  V30 20 C 0.0 -2.25 0.0 0
M  V30 21 C -2.598 -0.75 0.0 0
M  V30 22 C -1.299 -3.0 0.0 0
M  V30 23 C -2.598 -2.25 0.0 0
M  V30 24 C -3.8971 0.0 0.0 0
M  V30 25 C -3.8971 -3.0 0.0 0
M  V30 26 F -4.6471 -1.299 0.0 0
M  V30 27 F -5.1961 0.75 0.0 0
M  V30 28 F -3.1471 1.299 0.0 0
M  V30 29 N -5.1961 -3.75 0.0 0
M  V30 END ATOM
M  V30 BEGIN BOND
M  V30 1 2 1 2
M  V30 2 2 1 3
M  V30 3 1 1 4
M  V30 4 1 1 5
M  V30 5 2 4 6
M  V30 6 1 4 7
M  V30 7 1 8 5
M  V30 8 1 6 9
M  V30 9 2 7 10
M  V30 10 1 8 11 CFG=1
M  V30 11 1 8 12
M  V30 12 1 8 13
M  V30 13 2 9 14
M  V30 14 2 12 15
M  V30 15 1 12 16
M  V30 16 1 14 17
M  V30 17 1 16 18
M  V30 18 2 18 19
M  V30 19 1 18 20
M  V30 20 1 19 21
M  V30 21 2 20 22
M  V30 22 2 21 23
M  V30 23 1 21 24
M  V30 24 1 23 25
M  V30 25 1 24 26
M  V30 26 1 24 27
M  V30 27 1 24 28
M  V30 28 3 25 29
M  V30 29 1 10 14
M  V30 30 1 22 23
M  V30 END BOND
M  V30 BEGIN COLLECTION
M  V30 MDLV30/STERAC1 ATOMS=(1 8)
M  V30 END COLLECTION
M  V30 END CTAB
M  END
>  <Molecule Name>


>  <status>
-

>  <cas>
90357-06-5

>  <name>
BICALUTAMIDE

>  <ID>
1197

>  <Smiles>
CC(CS(c(cc1)ccc1F)(=O)=O)(C(Nc(cc1)cc(C(F)(F)F)c1C#N)=O)O

$$$$

Actelion Java MolfileCreator 2.0

  0  0  0  0  0  0              0 V3000
M  V30 BEGIN CTAB
M  V30 COUNTS 28 31 0 0 0
M  V30 BEGIN ATOM
M  V30 1 O 1.0934 -2.1636 0.0 0
M  V30 2 C 1.8365 -1.4945 0.0 0
M  V30 3 C 2.8147 -1.7024 0.0 0
M  V30 4 C 1.732 -0.5 0.0 0 CFG=2
M  V30 5 C 3.3147 -0.8364 0.0 0
M  V30 6 C 3.3147 -2.5684 0.0 0
M  V30 7 C 2.6455 -0.0932 0.0 0
M  V30 8 C 0.866 0.0 0.0 0
M  V30 9 C 4.3147 -0.8364 0.0 0
M  V30 10 C 4.3147 -2.5684 0.0 0
M  V30 11 C 0.0 -0.5 0.0 0
M  V30 12 C 4.8147 -1.7024 0.0 0
M  V30 13 O 4.8147 -3.4344 0.0 0
M  V30 14 C -0.866 0.0 0.0 0
M  V30 15 C 0.0 -1.4999 0.0 0
M  V30 16 O 5.8147 -1.7024 0.0 0
M  V30 17 C 5.8147 -3.4344 0.0 0
M  V30 18 C -1.732 -0.4999 0.0 0
M  V30 19 C -0.866 -1.9999 0.0 0
M  V30 20 C 6.3147 -0.8364 0.0 0
M  V30 21 N -1.732 -1.4999 0.0 0
M  V30 22 C -2.598 -1.9999 0.0 0
M  V30 23 C -2.598 -2.9999 0.0 0
M  V30 24 C -3.4641 -3.4999 0.0 0
M  V30 25 C -1.732 -3.4999 0.0 0
M  V30 26 C -3.4641 -4.4999 0.0 0
M  V30 27 C -1.732 -4.4999 0.0 0
M  V30 28 C -2.598 -4.9999 0.0 0
M  V30 END ATOM
M  V30 BEGIN BOND
M  V30 1 2 1 2
M  V30 2 1 2 3
M  V30 3 1 4 2
M  V30 4 2 3 5
M  V30 5 1 3 6
M  V30 6 1 4 7
M  V30 7 1 4 8 CFG=1
M  V30 8 1 5 9
M  V30 9 2 6 10
M  V30 10 1 8 11
M  V30 11 2 9 12
M  V30 12 1 10 13
M  V30 13 1 11 14
M  V30 14 1 11 15
M  V30 15 1 12 16
M  V30 16 1 13 17
M  V30 17 1 14 18
M  V30 18 1 15 19
M  V30 19 1 16 20
M  V30 20 1 18 21
M  V30 21 1 21 22
M  V30 22 1 22 23
M  V30 23 2 23 24
M  V30 24 1 23 25
M  V30 25 1 24 26
M  V30 26 2 25 27
M  V30 27 2 26 28
M  V30 28 1 5 7
M  V30 29 1 10 12
M  V30 30 1 19 21
M  V30 31 1 27 28
M  V30 END BOND
M  V30 BEGIN COLLECTION
M  V30 MDLV30/STERAC1 ATOMS=(1 4)
M  V30 END COLLECTION
M  V30 END CTAB
M  END
>  <Molecule Name>


>  <status>
-

>  <cas>
120014-06-4

>  <name>
DONEPEZIL

>  <ID>
1198

>  <Smiles>
COc(c(OC)c1)cc(CC2CC3CCN(Cc4ccccc4)CC3)c1C2=O

$$$$

Actelion Java MolfileCreator 2.0

  0  0  0  0  0  0              0 V3000
M  V30 BEGIN CTAB
M  V30 COUNTS 26 29 0 0 0
M  V30 BEGIN ATOM
M  V30 1 F 3.4641 -4.4999 0.0 0
M  V30 2 C 3.4641 -3.4999 0.0 0
M  V30 3 C 4.3301 -3.0 0.0 0
M  V30 4 C 2.598 -2.9999 0.0 0
M  V30 5 N 5.1961 -3.5 0.0 0
M  V30 6 C 4.3301 -1.9999 0.0 0
M  V30 7 C 2.598 -2.0 0.0 0
M  V30 8 C 1.732 -3.4999 0.0 0
M  V30 9 C 5.1961 -4.5 0.0 0
M  V30 10 C 6.0621 -3.0 0.0 0
M  V30 11 C 3.4641 -1.5 0.0 0
M  V30 12 C 1.732 -1.5 0.0 0
M  V30 13 C 6.0621 -5.0 0.0 0 CFG=1
M  V30 14 C 6.9282 -3.5 0.0 0
M  V30 15 N 3.4641 -0.5 0.0 0
M  V30 16 O 0.866 -2.0 0.0 0
M  V30 17 C 1.732 -0.5 0.0 0
M  V30 18 N 6.9282 -4.5 0.0 0
M  V30 19 C 6.0621 -6.0 0.0 0
M  V30 20 C 2.598 0.0 0.0 0
M  V30 21 C 4.3301 0.0 0.0 0
M  V30 22 C 0.866 0.0 0.0 0
M  V30 23 C 5.3301 0.0 0.0 0
M  V30 24 C 4.8301 0.866 0.0 0
M  V30 25 O 0.866 1.0 0.0 0
M  V30 26 O 0.0 -0.5 0.0 0 CHG=-1
M  V30 END ATOM
M  V30 BEGIN BOND
M  V30 1 1 1 2
M  V30 2 2 2 3
M  V30 3 1 2 4
M  V30 4 1 3 5
M  V30 5 1 3 6
M  V30 6 2 4 7
M  V30 7 1 4 8
M  V30 8 1 5 9
M  V30 9 1 5 10
M  V30 10 2 6 11
M  V30 11 1 7 12
M  V30 12 1 13 9
M  V30 13 1 10 14
M  V30 14 1 11 15
M  V30 15 2 12 16
M  V30 16 1 12 17
M  V30 17 1 13 18
M  V30 18 1 13 19 CFG=1
M  V30 19 1 15 20
M  V30 20 1 15 21
M  V30 21 1 17 22
M  V30 22 1 21 23
M  V30 23 1 21 24
M  V30 24 2 22 25
M  V30 25 1 22 26
M  V30 26 1 7 11
M  V30 27 1 14 18
M  V30 28 2 17 20
M  V30 29 1 23 24
M  V30 END BOND
M  V30 BEGIN COLLECTION
M  V30 MDLV30/STERAC1 ATOMS=(1 13)
M  V30 END COLLECTION
M  V30 END CTAB
M  END
>  <Molecule Name>


>  <status>
DISCONTINUED

>  <cas>
119914-60-2

>  <name>
GREPAFLOXACIN

>  <ID>
1199

>  <Smiles>
CC(C1)NCCN1c(cc(c1c2C)N(C3CC3)C=C(C([O-])=O)C1=O)c2F

$$$$

Actelion Java MolfileCreator 2.0

  0  0  0  0  0  0              0 V3000
M  V30 BEGIN CTAB
M  V30 COUNTS 19 21 0 0 0
M  V30 BEGIN ATOM
M  V30 1 O 1.732 -1.5 0.0 0
M  V30 2 C 1.732 -0.5 0.0 0
M  V30 3 N 2.598 0.0 0.0 0
M  V30 4 C 0.866 0.0 0.0 0 CFG=1
M  V30 5 C 2.598 0.9999 0.0 0
M  V30 6 N 0.0 -0.5 0.0 0
M  V30 7 C 0.866 1.0 0.0 0
M  V30 8 O 3.4641 1.4999 0.0 0
M  V30 9 C 1.732 1.4999 0.0 0
M  V30 10 C -0.9135 -0.0932 0.0 0
M  V30 11 C -0.1045 -1.4945 0.0 0
M  V30 12 O -1.1214 0.8848 0.0 0
M  V30 13 C -1.5826 -0.8364 0.0 0
M  V30 14 O 0.6386 -2.1636 0.0 0
M  V30 15 C -1.0826 -1.7024 0.0 0
M  V30 16 C -2.5826 -0.8364 0.0 0
M  V30 17 C -1.5826 -2.5684 0.0 0
M  V30 18 C -3.0826 -1.7024 0.0 0
M  V30 19 C -2.5826 -2.5684 0.0 0
M  V30 END ATOM
M  V30 BEGIN BOND
M  V30 1 2 1 2
M  V30 2 1 2 3
M  V30 3 1 4 2
M  V30 4 1 3 5
M  V30 5 1 4 6 CFG=1
M  V30 6 1 4 7
M  V30 7 2 5 8
M  V30 8 1 5 9
M  V30 9 1 6 10
M  V30 10 1 6 11
M  V30 11 2 10 12
M  V30 12 1 10 13
M  V30 13 2 11 14
M  V30 14 1 11 15
M  V30 15 1 13 16
M  V30 16 1 15 17
M  V30 17 2 16 18
M  V30 18 2 17 19
M  V30 19 1 7 9
M  V30 20 2 13 15
M  V30 21 1 18 19
M  V30 END BOND
M  V30 BEGIN COLLECTION
M  V30 MDLV30/STERAC1 ATOMS=(1 4)
M  V30 END COLLECTION
M  V30 END CTAB
M  END
>  <Molecule Name>


>  <status>
-

>  <cas>
50-35-1

>  <name>
THALIDOMIDE

>  <ID>
1200

>  <Smiles>
O=C(c1c2cccc1)N(C(CCC(N1)=O)C1=O)C2=O

$$$$

Actelion Java MolfileCreator 2.0

  0  0  0  0  0  0              0 V3000
M  V30 BEGIN CTAB
M  V30 COUNTS 19 22 0 0 0
M  V30 BEGIN ATOM
M  V30 1 N 1.4558 1.4917 0.0 0
M  V30 2 C 1.299 0.0 0.0 0
M  V30 3 C 2.923 1.8036 0.0 0
M  V30 4 N 2.6693 -0.6101 0.0 0
M  V30 5 N 0.0 -0.75 0.0 0
M  V30 6 C 3.673 0.5046 0.0 0 CFG=2
M  V30 7 C 2.915 -2.0898 0.0 0
M  V30 8 C 5.1703 0.4149 0.0 0
M  V30 9 C 4.2251 -2.8203 0.0 0
M  V30 10 C 1.6274 -2.8591 0.0 0
M  V30 11 C 6.0337 -0.8116 0.0 0
M  V30 12 C 5.8009 1.7759 0.0 0
M  V30 13 C 4.2476 -4.3201 0.0 0
M  V30 14 C 5.6131 -2.2514 0.0 0
M  V30 15 C 1.6498 -4.359 0.0 0
M  V30 16 C 7.5277 -0.6772 0.0 0
M  V30 17 C 7.2948 1.9104 0.0 0
M  V30 18 C 2.9599 -5.0895 0.0 0
M  V30 19 C 8.1582 0.6838 0.0 0
M  V30 END ATOM
M  V30 BEGIN BOND
M  V30 1 2 1 2
M  V30 2 1 1 3
M  V30 3 1 2 4
M  V30 4 1 2 5
M  V30 5 1 6 3
M  V30 6 1 4 7
M  V30 7 1 6 8
M  V30 8 2 7 9
M  V30 9 1 7 10
M  V30 10 2 8 11
M  V30 11 1 8 12
M  V30 12 1 9 13
M  V30 13 1 9 14
M  V30 14 2 10 15
M  V30 15 1 11 16
M  V30 16 2 12 17
M  V30 17 2 13 18
M  V30 18 2 16 19
M  V30 19 1 6 4 CFG=1
M  V30 20 1 11 14
M  V30 21 1 15 18
M  V30 22 1 17 19
M  V30 END BOND
M  V30 BEGIN COLLECTION
M  V30 MDLV30/STERAC1 ATOMS=(1 6)
M  V30 END COLLECTION
M  V30 END CTAB
M  END
>  <Molecule Name>


>  <status>
-

>  <cas>
80012-43-7

>  <name>
EPINASTINE

>  <ID>
1201

>  <Smiles>
NC1=NCC(c2c(C3)cccc2)N1c1c3cccc1

$$$$

Actelion Java MolfileCreator 2.0

  0  0  0  0  0  0              0 V3000
M  V30 BEGIN CTAB
M  V30 COUNTS 6 5 0 0 0
M  V30 BEGIN ATOM
M  V30 1 O 2.598 0.0 0.0 0
M  V30 2 C 1.732 -0.5 0.0 0
M  V30 3 O 1.732 -1.5 0.0 0 CHG=-1
M  V30 4 C 0.866 0.0 0.0 0 CFG=1
M  V30 5 O 0.866 1.0 0.0 0
M  V30 6 C 0.0 -0.5 0.0 0
M  V30 END ATOM
M  V30 BEGIN BOND
M  V30 1 2 1 2
M  V30 2 1 2 3
M  V30 3 1 4 2
M  V30 4 1 4 5 CFG=3
M  V30 5 1 4 6
M  V30 END BOND
M  V30 BEGIN COLLECTION
M  V30 MDLV30/STERAC1 ATOMS=(1 4)
M  V30 END COLLECTION
M  V30 END CTAB
M  END
>  <Molecule Name>


>  <status>
-

>  <cas>
50-21-5

>  <name>
LACTIC ACID

>  <ID>
1202

>  <Smiles>
CC(C([O-])=O)O

$$$$
_c001
Actelion Java MolfileCreator 2.0

  0  0  0  0  0  0              0 V3000
M  V30 BEGIN CTAB
M  V30 COUNTS 26 27 0 0 0
M  V30 BEGIN ATOM
M  V30 1 O 5.1961 -0.5 0.0 0
M  V30 2 C 4.3301 0.0 0.0 0
M  V30 3 O 4.3301 1.0 0.0 0 CHG=-1
M  V30 4 C 3.4641 -0.5 0.0 0
M  V30 5 C 2.598 0.0 0.0 0
M  V30 6 C 1.732 -0.5 0.0 0
M  V30 7 C 0.866 0.0 0.0 0
M  V30 8 C 0.0 -0.5 0.0 0
M  V30 9 C -0.9135 -0.0932 0.0 0
M  V30 10 C -0.1045 -1.4945 0.0 0
M  V30 11 C -1.5826 -0.8364 0.0 0 CFG=2
M  V30 12 C -1.0826 -1.7024 0.0 0 CFG=1
M  V30 13 C -2.5608 -1.0443 0.0 0 CFG=2
M  V30 14 C -1.7518 -2.4455 0.0 0
M  V30 15 C -3.3039 -0.3751 0.0 0
M  V30 16 C -2.6653 -2.0388 0.0 0 CFG=2
M  V30 17 C -3.096 0.6029 0.0 0
M  V30 18 O -3.5313 -2.5388 0.0 0
M  V30 19 C -3.8392 1.272 0.0 0 CFG=2
M  V30 20 O -4.7902 0.963 0.0 0
M  V30 21 C -3.6312 2.2502 0.0 0 CFG=2
M  V30 22 C -2.6802 2.5592 0.0 0
M  V30 23 C -4.3744 2.9193 0.0 0
M  V30 24 C -2.4723 3.5374 0.0 0
M  V30 25 C -2.2644 4.5155 0.0 0
M  V30 26 C -2.0564 5.4936 0.0 0
M  V30 END ATOM
M  V30 BEGIN BOND
M  V30 1 2 1 2
M  V30 2 1 2 3
M  V30 3 1 2 4
M  V30 4 1 4 5
M  V30 5 1 5 6
M  V30 6 1 6 7
M  V30 7 2 7 8
M  V30 8 1 8 9
M  V30 9 1 8 10
M  V30 10 1 11 9 CFG=3
M  V30 11 1 12 10 CFG=3
M  V30 12 1 13 11
M  V30 13 1 12 14
M  V30 14 1 13 15 CFG=1
M  V30 15 1 16 13
M  V30 16 2 15 17
M  V30 17 1 16 18 CFG=3
M  V30 18 1 19 17
M  V30 19 1 19 20 CFG=3
M  V30 20 1 21 19
M  V30 21 1 21 22
M  V30 22 1 21 23 CFG=1
M  V30 23 1 22 24
M  V30 24 3 24 25
M  V30 25 1 25 26
M  V30 26 1 11 12
M  V30 27 1 14 16
M  V30 END BOND
M  V30 BEGIN COLLECTION
M  V30 MDLV30/STERAC1 ATOMS=(6 11 12 13 16 19 21)
M  V30 END COLLECTION
M  V30 END CTAB
M  END
>  <Molecule Name>
_c001

>  <status>
-

>  <cas>
78919-13-8

>  <name>
ILOPROST

>  <ID>
1203

>  <Smiles>
C[C@@H](CC#CC)[C@H](/C=C/[C@@H]([C@H](C1)[C@@H](C2)C/C1=C\CCCC([O-])=O)[C@H]2O)O

$$$$

Actelion Java MolfileCreator 2.0

  0  0  0  0  0  0              0 V3000
M  V30 BEGIN CTAB
M  V30 COUNTS 19 21 0 0 0
M  V30 BEGIN ATOM
M  V30 1 O 1.732 -1.5 0.0 0
M  V30 2 C 1.732 -0.5 0.0 0
M  V30 3 N 2.598 0.0 0.0 0
M  V30 4 C 0.866 0.0 0.0 0 CFG=1
M  V30 5 C 2.598 0.9999 0.0 0
M  V30 6 N 0.0 -0.5 0.0 0
M  V30 7 C 0.866 1.0 0.0 0
M  V30 8 O 3.4641 1.4999 0.0 0
M  V30 9 C 1.732 1.4999 0.0 0
M  V30 10 C -0.9135 -0.0932 0.0 0
M  V30 11 C -0.1045 -1.4945 0.0 0
M  V30 12 O -1.1214 0.8848 0.0 0
M  V30 13 C -1.5826 -0.8364 0.0 0
M  V30 14 C -1.0826 -1.7024 0.0 0
M  V30 15 C -2.5826 -0.8364 0.0 0
M  V30 16 C -1.5826 -2.5684 0.0 0
M  V30 17 C -3.0826 -1.7024 0.0 0
M  V30 18 N -1.0826 -3.4344 0.0 0
M  V30 19 C -2.5826 -2.5684 0.0 0
M  V30 END ATOM
M  V30 BEGIN BOND
M  V30 1 2 1 2
M  V30 2 1 2 3
M  V30 3 1 4 2
M  V30 4 1 3 5
M  V30 5 1 4 6 CFG=1
M  V30 6 1 4 7
M  V30 7 2 5 8
M  V30 8 1 5 9
M  V30 9 1 6 10
M  V30 10 1 6 11
M  V30 11 2 10 12
M  V30 12 1 10 13
M  V30 13 1 11 14
M  V30 14 1 13 15
M  V30 15 1 14 16
M  V30 16 2 15 17
M  V30 17 1 16 18
M  V30 18 2 16 19
M  V30 19 1 7 9
M  V30 20 2 13 14
M  V30 21 1 17 19
M  V30 END BOND
M  V30 BEGIN COLLECTION
M  V30 MDLV30/STERAC1 ATOMS=(1 4)
M  V30 END COLLECTION
M  V30 END CTAB
M  END
>  <Molecule Name>


>  <status>
-

>  <cas>
191732-72-6

>  <name>
LENALIDOMIDE

>  <ID>
1204

>  <Smiles>
Nc1cccc2c1CN(C(CCC(N1)=O)C1=O)C2=O

$$$$

Actelion Java MolfileCreator 2.0

  0  0  0  0  0  0              0 V3000
M  V30 BEGIN CTAB
M  V30 COUNTS 31 35 0 0 0
M  V30 BEGIN ATOM
M  V30 1 F 9.0441 0.4695 0.0 0
M  V30 2 C 8.0659 0.6774 0.0 0
M  V30 3 C 7.7569 1.6284 0.0 0
M  V30 4 C 7.3968 -0.0657 0.0 0
M  V30 5 C 6.7788 1.8364 0.0 0
M  V30 6 C 6.4187 0.1422 0.0 0
M  V30 7 O 6.2788 2.7024 0.0 0
M  V30 8 C 6.1096 1.0932 0.0 0
M  V30 9 N 5.3006 2.4945 0.0 0
M  V30 10 C 5.1961 1.5 0.0 0
M  V30 11 C 4.3301 1.0 0.0 0
M  V30 12 C 3.4641 1.5 0.0 0
M  V30 13 C 4.3301 0.0 0.0 0
M  V30 14 C 2.598 0.9999 0.0 0
M  V30 15 C 3.4641 -0.4999 0.0 0
M  V30 16 N 2.598 0.0 0.0 0
M  V30 17 C 1.732 -0.5 0.0 0
M  V30 18 C 0.866 0.0 0.0 0
M  V30 19 C 0.0 -0.5 0.0 0
M  V30 20 C -0.866 0.0 0.0 0
M  V30 21 C 0.0 -1.4999 0.0 0
M  V30 22 O -0.866 1.0 0.0 0
M  V30 23 N -1.732 -0.4999 0.0 0
M  V30 24 N -0.866 -1.9999 0.0 0
M  V30 25 C 0.866 -2.0 0.0 0
M  V30 26 C -1.732 -1.4999 0.0 0
M  V30 27 C -2.598 0.0 0.0 0
M  V30 28 C -2.598 -1.9999 0.0 0 CFG=1
M  V30 29 C -3.4641 -0.4999 0.0 0
M  V30 30 O -2.598 -2.9999 0.0 0
M  V30 31 C -3.4641 -1.4999 0.0 0
M  V30 END ATOM
M  V30 BEGIN BOND
M  V30 1 1 1 2
M  V30 2 2 2 3
M  V30 3 1 2 4
M  V30 4 1 3 5
M  V30 5 2 4 6
M  V30 6 1 5 7
M  V30 7 2 5 8
M  V30 8 1 7 9
M  V30 9 1 8 10
M  V30 10 1 10 11
M  V30 11 1 11 12
M  V30 12 1 11 13
M  V30 13 1 12 14
M  V30 14 1 13 15
M  V30 15 1 14 16
M  V30 16 1 16 17
M  V30 17 1 17 18
M  V30 18 1 18 19
M  V30 19 1 19 20
M  V30 20 2 19 21
M  V30 21 2 20 22
M  V30 22 1 20 23
M  V30 23 1 21 24
M  V30 24 1 21 25
M  V30 25 1 23 26
M  V30 26 1 23 27
M  V30 27 1 28 26
M  V30 28 1 27 29
M  V30 29 1 28 30 CFG=1
M  V30 30 1 28 31
M  V30 31 1 6 8
M  V30 32 2 9 10
M  V30 33 1 15 16
M  V30 34 2 24 26
M  V30 35 1 29 31
M  V30 END BOND
M  V30 BEGIN COLLECTION
M  V30 MDLV30/STERAC1 ATOMS=(1 28)
M  V30 END COLLECTION
M  V30 END CTAB
M  END
>  <Molecule Name>


>  <status>
-

>  <cas>
144598-75-4

>  <name>
PALIPERIDONE

>  <ID>
1205

>  <Smiles>
CC(N=C1N2CCCC1O)=C(CCN(CC1)CCC1c1noc3c1ccc(F)c3)C2=O

$$$$
Molecule-1
Actelion Java MolfileCreator 2.0

  0  0  0  0  0  0              0 V3000
M  V30 BEGIN CTAB
M  V30 COUNTS 25 27 0 0 0
M  V30 BEGIN ATOM
M  V30 1 O 9.0932 0.0 0.0 0
M  V30 2 C 7.7942 -0.75 0.0 0
M  V30 3 O 6.4951 0.0 0.0 0
M  V30 4 C 7.7942 -2.25 0.0 0
M  V30 5 C 5.1961 -0.75 0.0 0
M  V30 6 C 6.4951 -2.9999 0.0 0
M  V30 7 C 9.0932 -3.0 0.0 0
M  V30 8 C 3.8971 0.0 0.0 0
M  V30 9 C 6.4951 -4.4999 0.0 0
M  V30 10 C 5.1961 -2.2499 0.0 0
M  V30 11 C 9.0932 -4.5 0.0 0
M  V30 12 C 10.3923 -2.25 0.0 0
M  V30 13 N 2.598 -0.75 0.0 0 CHG=1
M  V30 14 O 7.7942 -5.25 0.0 0
M  V30 15 C 5.1961 -5.2499 0.0 0
M  V30 16 C 3.8971 -2.9999 0.0 0
M  V30 17 C 10.3923 -5.25 0.0 0
M  V30 18 C 11.6913 -3.0 0.0 0
M  V30 19 C 2.598 -2.25 0.0 0
M  V30 20 C 1.299 0.0 0.0 0
M  V30 21 C 3.8971 -1.5 0.0 0
M  V30 22 C 3.8971 -4.4999 0.0 0
M  V30 23 C 11.6913 -4.5 0.0 0
M  V30 24 C 1.299 -3.0 0.0 0
M  V30 25 C 0.0 -0.75 0.0 0
M  V30 END ATOM
M  V30 BEGIN BOND
M  V30 1 2 1 2
M  V30 2 1 2 3
M  V30 3 1 2 4
M  V30 4 1 3 5
M  V30 5 1 4 6
M  V30 6 1 4 7
M  V30 7 1 5 8
M  V30 8 2 6 9
M  V30 9 1 6 10
M  V30 10 2 7 11
M  V30 11 1 7 12
M  V30 12 1 8 13
M  V30 13 1 9 14
M  V30 14 1 9 15
M  V30 15 2 10 16
M  V30 16 1 11 17
M  V30 17 2 12 18
M  V30 18 1 13 19
M  V30 19 1 13 20
M  V30 20 1 13 21
M  V30 21 2 15 22
M  V30 22 2 17 23
M  V30 23 1 19 24
M  V30 24 1 20 25
M  V30 25 1 11 14
M  V30 26 1 16 22
M  V30 27 1 18 23
M  V30 END BOND
M  V30 END CTAB
M  END
>  <Molecule Name>
Molecule-1

>  <status>
DISCONTINUED

>  <cas>
5818-17-7

>  <name>
METHANTHELINE

>  <ID>
1206

>  <Smiles>
CC[N+](C)(CC)CCOC(C1c(cccc2)c2Oc2c1cccc2)=O

$$$$

Actelion Java MolfileCreator 2.0

  0  0  0  0  0  0              0 V3000
M  V30 BEGIN CTAB
M  V30 COUNTS 12 12 0 0 0
M  V30 BEGIN ATOM
M  V30 1 O 5.1961 -0.5 0.0 0
M  V30 2 C 4.3301 0.0 0.0 0
M  V30 3 C 4.3301 1.0 0.0 0
M  V30 4 C 3.4641 -0.4999 0.0 0
M  V30 5 O 5.1961 1.5 0.0 0
M  V30 6 C 3.4641 1.5 0.0 0
M  V30 7 C 2.598 0.0 0.0 0
M  V30 8 C 2.598 1.0 0.0 0
M  V30 9 C 1.732 -0.5 0.0 0 CFG=1
M  V30 10 O 1.732 -1.5 0.0 0
M  V30 11 C 0.866 0.0 0.0 0
M  V30 12 N 0.0 -0.5 0.0 0
M  V30 END ATOM
M  V30 BEGIN BOND
M  V30 1 1 1 2
M  V30 2 2 2 3
M  V30 3 1 2 4
M  V30 4 1 3 5
M  V30 5 1 3 6
M  V30 6 2 4 7
M  V30 7 2 6 8
M  V30 8 1 9 7
M  V30 9 1 9 10 CFG=1
M  V30 10 1 9 11
M  V30 11 1 11 12
M  V30 12 1 7 8
M  V30 END BOND
M  V30 BEGIN COLLECTION
M  V30 MDLV30/STERAC1 ATOMS=(1 9)
M  V30 END COLLECTION
M  V30 END CTAB
M  END
>  <Molecule Name>


>  <status>
-

>  <cas>
51-41-2

>  <name>
NOREPINEPHRINE

>  <ID>
1207

>  <Smiles>
NCC(c(cc1)cc(O)c1O)O

$$$$

Actelion Java MolfileCreator 2.0

  0  0  0  0  0  0              0 V3000
M  V30 BEGIN CTAB
M  V30 COUNTS 21 23 0 0 0
M  V30 BEGIN ATOM
M  V30 1 O 3.4641 2.5 0.0 0
M  V30 2 C 3.4641 1.5 0.0 0
M  V30 3 C 2.598 1.0 0.0 0
M  V30 4 C 4.3301 1.0 0.0 0
M  V30 5 C 2.598 0.0 0.0 0
M  V30 6 C 4.3301 0.0 0.0 0
M  V30 7 N 1.732 -0.5 0.0 0
M  V30 8 C 3.4641 -0.4999 0.0 0
M  V30 9 C 1.732 -1.5 0.0 0
M  V30 10 C 0.866 0.0 0.0 0
M  V30 11 C 0.866 -1.9999 0.0 0
M  V30 12 C 2.598 -2.0 0.0 0
M  V30 13 C 0.0 -0.5 0.0 0
M  V30 14 C 0.866 -2.9999 0.0 0
M  V30 15 C 2.598 -3.0 0.0 0
M  V30 16 N -0.9135 -0.0932 0.0 0
M  V30 17 N -0.1045 -1.4945 0.0 0
M  V30 18 C 1.732 -3.5 0.0 0
M  V30 19 C -1.5826 -0.8364 0.0 0
M  V30 20 C -1.0826 -1.7024 0.0 0
M  V30 21 C 1.732 -4.5 0.0 0
M  V30 END ATOM
M  V30 BEGIN BOND
M  V30 1 1 1 2
M  V30 2 2 2 3
M  V30 3 1 2 4
M  V30 4 1 3 5
M  V30 5 2 4 6
M  V30 6 1 5 7
M  V30 7 2 5 8
M  V30 8 1 7 9
M  V30 9 1 7 10
M  V30 10 2 9 11
M  V30 11 1 9 12
M  V30 12 1 10 13
M  V30 13 1 11 14
M  V30 14 2 12 15
M  V30 15 2 13 16
M  V30 16 1 13 17
M  V30 17 2 14 18
M  V30 18 1 16 19
M  V30 19 1 17 20
M  V30 20 1 18 21
M  V30 21 1 6 8
M  V30 22 1 15 18
M  V30 23 1 19 20
M  V30 END BOND
M  V30 END CTAB
M  END
>  <Molecule Name>


>  <status>
-

>  <cas>
50-60-2

>  <name>
PHENTOLAMINE

>  <ID>
1208

>  <Smiles>
Cc(cc1)ccc1N(CC1=NCCN1)c1cccc(O)c1

$$$$

Actelion Java MolfileCreator 2.0

  0  0  0  0  0  0              0 V3000
M  V30 BEGIN CTAB
M  V30 COUNTS 19 20 0 0 0
M  V30 BEGIN ATOM
M  V30 1 O 7.7942 0.0 0.0 0
M  V30 2 C 6.9282 -0.5 0.0 0
M  V30 3 C 7.7942 0.9999 0.0 0
M  V30 4 C 6.0621 0.0 0.0 0
M  V30 5 C 6.9282 -1.5 0.0 0
M  V30 6 C 5.1961 -0.5 0.0 0
M  V30 7 C 6.0621 -2.0 0.0 0
M  V30 8 N 4.3301 0.0 0.0 0
M  V30 9 C 5.1961 -1.5 0.0 0
M  V30 10 C 6.0621 -3.0 0.0 0
M  V30 11 C 3.4641 -0.5 0.0 0 CFG=2
M  V30 12 N 4.3301 -1.9999 0.0 0
M  V30 13 C 5.1961 -3.5 0.0 0
M  V30 14 C 2.598 0.0 0.0 0
M  V30 15 C 3.4641 -1.5 0.0 0
M  V30 16 C 4.3301 -3.0 0.0 0
M  V30 17 C 1.732 -0.5 0.0 0
M  V30 18 C 0.866 0.0 0.0 0
M  V30 19 N 0.0 -0.5 0.0 0
M  V30 END ATOM
M  V30 BEGIN BOND
M  V30 1 1 1 2
M  V30 2 1 1 3
M  V30 3 1 2 4
M  V30 4 2 2 5
M  V30 5 2 4 6
M  V30 6 1 5 7
M  V30 7 1 6 8
M  V30 8 1 6 9
M  V30 9 2 7 10
M  V30 10 1 11 8 CFG=1
M  V30 11 2 9 12
M  V30 12 1 10 13
M  V30 13 1 11 14
M  V30 14 1 11 15
M  V30 15 1 12 16
M  V30 16 1 14 17
M  V30 17 1 17 18
M  V30 18 1 18 19
M  V30 19 1 7 9
M  V30 20 2 13 16
M  V30 END BOND
M  V30 BEGIN COLLECTION
M  V30 MDLV30/STERAC1 ATOMS=(1 11)
M  V30 END COLLECTION
M  V30 END CTAB
M  END
>  <Molecule Name>


>  <status>
-

>  <cas>
90-34-6

>  <name>
PRIMAQUINE

>  <ID>
1209

>  <Smiles>
CC(CCCN)Nc1cc(OC)cc2cccnc12

$$$$

Actelion Java MolfileCreator 2.0

  0  0  0  0  0  0              0 V3000
M  V30 BEGIN CTAB
M  V30 COUNTS 19 20 0 0 0
M  V30 BEGIN ATOM
M  V30 1 O 7.7942 0.0 0.0 0
M  V30 2 C 6.9282 -0.5 0.0 0
M  V30 3 C 7.7942 0.9999 0.0 0
M  V30 4 C 6.0621 0.0 0.0 0
M  V30 5 C 6.9282 -1.5 0.0 0
M  V30 6 C 5.1961 -0.5 0.0 0
M  V30 7 C 6.0621 -2.0 0.0 0
M  V30 8 N 4.3301 0.0 0.0 0
M  V30 9 C 5.1961 -1.5 0.0 0
M  V30 10 C 6.0621 -3.0 0.0 0
M  V30 11 C 3.4641 -0.5 0.0 0 CFG=2
M  V30 12 N 4.3301 -1.9999 0.0 0
M  V30 13 C 5.1961 -3.5 0.0 0
M  V30 14 C 2.598 0.0 0.0 0
M  V30 15 C 3.4641 -1.5 0.0 0
M  V30 16 C 4.3301 -3.0 0.0 0
M  V30 17 C 1.732 -0.5 0.0 0
M  V30 18 C 0.866 0.0 0.0 0
M  V30 19 N 0.0 -0.5 0.0 0
M  V30 END ATOM
M  V30 BEGIN BOND
M  V30 1 1 1 2
M  V30 2 1 1 3
M  V30 3 1 2 4
M  V30 4 2 2 5
M  V30 5 2 4 6
M  V30 6 1 5 7
M  V30 7 1 6 8
M  V30 8 1 6 9
M  V30 9 2 7 10
M  V30 10 1 11 8 CFG=1
M  V30 11 2 9 12
M  V30 12 1 10 13
M  V30 13 1 11 14
M  V30 14 1 11 15
M  V30 15 1 12 16
M  V30 16 1 14 17
M  V30 17 1 17 18
M  V30 18 1 18 19
M  V30 19 1 7 9
M  V30 20 2 13 16
M  V30 END BOND
M  V30 BEGIN COLLECTION
M  V30 MDLV30/STERAC1 ATOMS=(1 11)
M  V30 END COLLECTION
M  V30 END CTAB
M  END
>  <Molecule Name>


>  <status>
-

>  <cas>
90-34-6

>  <name>
PRIMAQUINE

>  <ID>
1210

>  <Smiles>
CC(CCCN)Nc1cc(OC)cc2cccnc12

$$$$

Actelion Java MolfileCreator 2.0

  0  0  0  0  0  0              0 V3000
M  V30 BEGIN CTAB
M  V30 COUNTS 25 26 0 0 0
M  V30 BEGIN ATOM
M  V30 1 O 7.4534 -2.2127 0.0 0
M  V30 2 C 7.827 -0.7531 0.0 0
M  V30 3 O 6.5225 0.0 0.0 0
M  V30 4 C 9.1316 0.0 0.0 0 CFG=2
M  V30 5 C 5.218 -0.7531 0.0 0
M  V30 6 O 10.4361 -0.7531 0.0 0
M  V30 7 C 9.1316 1.5063 0.0 0
M  V30 8 C 9.1316 -1.5063 0.0 0
M  V30 9 C 3.9135 0.0 0.0 0
M  V30 10 C 10.4361 2.2594 0.0 0
M  V30 11 C 7.827 2.2594 0.0 0
M  V30 12 C 8.0109 -2.3065 0.0 0
M  V30 13 C 10.4361 -2.2594 0.0 0
M  V30 14 N 2.609 -0.7531 0.0 0 CHG=1
M  V30 15 C 10.4361 3.7658 0.0 0
M  V30 16 C 7.827 3.7658 0.0 0
M  V30 17 C 7.827 -3.7658 0.0 0
M  V30 18 C 10.4361 -3.7658 0.0 0
M  V30 19 C 2.609 -2.2594 0.0 0
M  V30 20 C 1.3045 0.0 0.0 0
M  V30 21 C 3.9135 -1.5063 0.0 0
M  V30 22 C 9.1316 4.5189 0.0 0
M  V30 23 C 9.1316 -4.5189 0.0 0
M  V30 24 C 1.3045 -3.0126 0.0 0
M  V30 25 C 0.0 -0.7531 0.0 0
M  V30 END ATOM
M  V30 BEGIN BOND
M  V30 1 2 1 2
M  V30 2 1 2 3
M  V30 3 1 4 2
M  V30 4 1 3 5
M  V30 5 1 4 6
M  V30 6 1 4 7
M  V30 7 1 4 8 CFG=3
M  V30 8 1 5 9
M  V30 9 2 7 10
M  V30 10 1 7 11
M  V30 11 1 8 12
M  V30 12 1 8 13
M  V30 13 1 9 14
M  V30 14 1 10 15
M  V30 15 2 11 16
M  V30 16 1 12 17
M  V30 17 1 13 18
M  V30 18 1 14 19
M  V30 19 1 14 20
M  V30 20 1 14 21
M  V30 21 2 15 22
M  V30 22 1 17 23
M  V30 23 1 19 24
M  V30 24 1 20 25
M  V30 25 1 16 22
M  V30 26 1 18 23
M  V30 END BOND
M  V30 BEGIN COLLECTION
M  V30 MDLV30/STERAC1 ATOMS=(1 4)
M  V30 END COLLECTION
M  V30 END CTAB
M  END
>  <Molecule Name>


>  <status>
DISCONTINUED

>  <cas>
14214-84-7

>  <name>
OXYPHENONIUM

>  <ID>
1211

>  <Smiles>
CC[N+](C)(CC)CCOC(C(C1CCCCC1)(c1ccccc1)O)=O

$$$$

Actelion Java MolfileCreator 2.0

  0  0  0  0  0  0              0 V3000
M  V30 BEGIN CTAB
M  V30 COUNTS 25 26 0 0 0
M  V30 BEGIN ATOM
M  V30 1 O 7.4534 -2.2127 0.0 0
M  V30 2 C 7.827 -0.7531 0.0 0
M  V30 3 O 6.5225 0.0 0.0 0
M  V30 4 C 9.1316 0.0 0.0 0 CFG=2
M  V30 5 C 5.218 -0.7531 0.0 0
M  V30 6 O 10.4361 -0.7531 0.0 0
M  V30 7 C 9.1316 1.5063 0.0 0
M  V30 8 C 9.1316 -1.5063 0.0 0
M  V30 9 C 3.9135 0.0 0.0 0
M  V30 10 C 10.4361 2.2594 0.0 0
M  V30 11 C 7.827 2.2594 0.0 0
M  V30 12 C 8.0109 -2.3065 0.0 0
M  V30 13 C 10.4361 -2.2594 0.0 0
M  V30 14 N 2.609 -0.7531 0.0 0 CHG=1
M  V30 15 C 10.4361 3.7658 0.0 0
M  V30 16 C 7.827 3.7658 0.0 0
M  V30 17 C 7.827 -3.7658 0.0 0
M  V30 18 C 10.4361 -3.7658 0.0 0
M  V30 19 C 2.609 -2.2594 0.0 0
M  V30 20 C 1.3045 0.0 0.0 0
M  V30 21 C 3.9135 -1.5063 0.0 0
M  V30 22 C 9.1316 4.5189 0.0 0
M  V30 23 C 9.1316 -4.5189 0.0 0
M  V30 24 C 1.3045 -3.0126 0.0 0
M  V30 25 C 0.0 -0.7531 0.0 0
M  V30 END ATOM
M  V30 BEGIN BOND
M  V30 1 2 1 2
M  V30 2 1 2 3
M  V30 3 1 4 2
M  V30 4 1 3 5
M  V30 5 1 4 6
M  V30 6 1 4 7
M  V30 7 1 4 8 CFG=3
M  V30 8 1 5 9
M  V30 9 2 7 10
M  V30 10 1 7 11
M  V30 11 1 8 12
M  V30 12 1 8 13
M  V30 13 1 9 14
M  V30 14 1 10 15
M  V30 15 2 11 16
M  V30 16 1 12 17
M  V30 17 1 13 18
M  V30 18 1 14 19
M  V30 19 1 14 20
M  V30 20 1 14 21
M  V30 21 2 15 22
M  V30 22 1 17 23
M  V30 23 1 19 24
M  V30 24 1 20 25
M  V30 25 1 16 22
M  V30 26 1 18 23
M  V30 END BOND
M  V30 BEGIN COLLECTION
M  V30 MDLV30/STERAC1 ATOMS=(1 4)
M  V30 END COLLECTION
M  V30 END CTAB
M  END
>  <Molecule Name>


>  <status>
DISCONTINUED

>  <cas>
14214-84-7

>  <name>
OXYPHENONIUM

>  <ID>
1212

>  <Smiles>
CC[N+](C)(CC)CCOC(C(C1CCCCC1)(c1ccccc1)O)=O

$$$$

Actelion Java MolfileCreator 2.0

  0  0  0  0  0  0              0 V3000
M  V30 BEGIN CTAB
M  V30 COUNTS 43 49 0 0 0
M  V30 BEGIN ATOM
M  V30 1 O -4.0826 -1.7024 0.0 0
M  V30 2 C -3.0826 -1.7024 0.0 0
M  V30 3 N -2.5826 -2.5684 0.0 0
M  V30 4 C -2.5826 -0.8364 0.0 0 CFG=1
M  V30 5 C -1.5826 -2.5684 0.0 0 CFG=2
M  V30 6 C -2.8916 -3.5195 0.0 0
M  V30 7 N -1.5826 -0.8364 0.0 0
M  V30 8 C -3.0826 0.0296 0.0 0
M  V30 9 C -1.0826 -1.7024 0.0 0 CFG=1
M  V30 10 C -1.2736 -3.5195 0.0 0
M  V30 11 C -2.0826 -4.1073 0.0 0
M  V30 12 C -0.9135 -0.0932 0.0 0
M  V30 13 C -4.0826 0.0296 0.0 0
M  V30 14 C -3.0826 1.0295 0.0 0
M  V30 15 C -2.2166 0.5295 0.0 0
M  V30 16 O -0.1045 -1.4945 0.0 0
M  V30 17 O -0.4948 -2.5114 0.0 0
M  V30 18 O -1.1214 0.8848 0.0 0
M  V30 19 C 0.0 -0.5 0.0 0 CFG=1
M  V30 20 C -4.5826 0.8956 0.0 0
M  V30 21 N 0.866 0.0 0.0 0
M  V30 22 C 0.8386 -1.0446 0.0 0
M  V30 23 C 0.866 1.0 0.0 0
M  V30 24 C 0.7863 -2.0432 0.0 0
M  V30 25 C 1.7296 -0.5906 0.0 0
M  V30 26 O 0.0 1.5 0.0 0
M  V30 27 C 1.732 1.4999 0.0 0 CFG=1
M  V30 28 C 1.732 2.4999 0.0 0
M  V30 29 C 2.598 0.9999 0.0 0
M  V30 30 N 2.598 2.9999 0.0 0
M  V30 31 C 3.4641 1.4999 0.0 0 CFG=1
M  V30 32 C 3.4641 2.4999 0.0 0 CFG=1
M  V30 33 C 2.598 3.9999 0.0 0
M  V30 34 C 4.3301 0.9999 0.0 0
M  V30 35 C 4.3301 2.9999 0.0 0
M  V30 36 C 5.1961 1.4999 0.0 0
M  V30 37 C 4.4851 -0.0204 0.0 0
M  V30 38 C 5.1961 2.4999 0.0 0
M  V30 39 C 6.1472 1.1909 0.0 0
M  V30 40 C 5.3987 -0.4272 0.0 0
M  V30 41 C 6.1472 2.809 0.0 0
M  V30 42 N 6.7349 1.9999 0.0 0
M  V30 43 C 6.2077 0.1605 0.0 0
M  V30 END ATOM
M  V30 BEGIN BOND
M  V30 1 2 1 2
M  V30 2 1 2 3
M  V30 3 1 4 2
M  V30 4 1 5 3 CFG=3
M  V30 5 1 3 6
M  V30 6 1 4 7
M  V30 7 1 4 8 CFG=3
M  V30 8 1 9 5
M  V30 9 1 5 10
M  V30 10 1 6 11
M  V30 11 1 7 12
M  V30 12 1 8 13
M  V30 13 1 8 14
M  V30 14 1 8 15
M  V30 15 1 9 16
M  V30 16 1 9 17 CFG=3
M  V30 17 2 12 18
M  V30 18 1 19 12
M  V30 19 1 13 20
M  V30 20 1 19 21 CFG=3
M  V30 21 1 19 22
M  V30 22 1 21 23
M  V30 23 1 22 24
M  V30 24 1 22 25
M  V30 25 2 23 26
M  V30 26 1 27 23 CFG=1
M  V30 27 1 27 28
M  V30 28 1 27 29
M  V30 29 1 28 30
M  V30 30 1 31 29 CFG=1
M  V30 31 1 32 30 CFG=3
M  V30 32 1 30 33
M  V30 33 1 31 34
M  V30 34 1 32 35
M  V30 35 2 34 36
M  V30 36 1 34 37
M  V30 37 1 35 38
M  V30 38 1 36 39
M  V30 39 2 37 40
M  V30 40 2 38 41
M  V30 41 1 39 42
M  V30 42 2 39 43
M  V30 43 1 7 9
M  V30 44 1 10 11
M  V30 45 1 16 19
M  V30 46 1 31 32
M  V30 47 1 36 38
M  V30 48 1 40 43
M  V30 49 1 41 42
M  V30 END BOND
M  V30 BEGIN COLLECTION
M  V30 MDLV30/STERAC1 ATOMS=(7 4 5 9 19 27 31 32)
M  V30 END COLLECTION
M  V30 END CTAB
M  END
>  <Molecule Name>


>  <status>
-

>  <cas>
8067-24-1

>  <name>
ERGOLOID

>  <ID>
1213

>  <Smiles>
CCC(C)(C)[C@@H](C(N(CCC1)[C@@H]1[C@]1(O)O[C@@]2(C(C)C)NC([C@H](C3)CN(C)[C@H](Cc4c[nH]5)[C@H]3c3c4c5ccc3)=O)=O)N1C2=O

$$$$

Actelion Java MolfileCreator 2.0

  0  0  0  0  0  0              0 V3000
M  V30 BEGIN CTAB
M  V30 COUNTS 23 26 0 0 0
M  V30 BEGIN ATOM
M  V30 1 O 1.732 -0.5 0.0 0
M  V30 2 C 2.5513 -0.0305 0.0 0 CFG=2
M  V30 3 C 0.866 0.0 0.0 0
M  V30 4 C 2.598 0.9999 0.0 0
M  V30 5 C 3.4641 -0.4999 0.0 0
M  V30 6 C 0.866 1.0 0.0 0
M  V30 7 C 0.0 -0.5 0.0 0
M  V30 8 C 3.8066 1.6319 0.0 0 CFG=1
M  V30 9 C 4.6156 0.2306 0.0 0 CFG=2
M  V30 10 C 1.732 1.4999 0.0 0
M  V30 11 C 0.0 1.4999 0.0 0
M  V30 12 C -0.866 0.0 0.0 0
M  V30 13 C 0.0 -1.4999 0.0 0
M  V30 14 N 3.702 0.6374 0.0 0
M  V30 15 C 4.7847 1.8398 0.0 0
M  V30 16 C 5.2847 0.9738 0.0 0
M  V30 17 C 1.732 2.5 0.0 0
M  V30 18 C 0.0 2.5 0.0 0
M  V30 19 C -1.732 -0.4999 0.0 0
M  V30 20 C -0.866 -1.9999 0.0 0
M  V30 21 C 2.9229 0.2127 0.0 0
M  V30 22 C 0.866 3.0 0.0 0
M  V30 23 C -1.732 -1.4999 0.0 0
M  V30 END ATOM
M  V30 BEGIN BOND
M  V30 1 1 2 1 CFG=3
M  V30 2 1 1 3
M  V30 3 1 2 4
M  V30 4 1 2 5
M  V30 5 1 3 6
M  V30 6 1 3 7
M  V30 7 1 8 4
M  V30 8 1 9 5
M  V30 9 2 6 10
M  V30 10 1 6 11
M  V30 11 2 7 12
M  V30 12 1 7 13
M  V30 13 1 8 14 CFG=1
M  V30 14 1 8 15
M  V30 15 1 9 16
M  V30 16 1 10 17
M  V30 17 2 11 18
M  V30 18 1 12 19
M  V30 19 2 13 20
M  V30 20 1 14 21
M  V30 21 2 17 22
M  V30 22 2 19 23
M  V30 23 1 9 14 CFG=1
M  V30 24 1 15 16
M  V30 25 1 18 22
M  V30 26 1 20 23
M  V30 END BOND
M  V30 BEGIN COLLECTION
M  V30 MDLV30/STEABS ATOMS=(3 2 8 9)
M  V30 END COLLECTION
M  V30 END CTAB
M  END
>  <Molecule Name>


>  <status>
-

>  <cas>
86-13-5

>  <name>
BENZTROPINE

>  <ID>
1214

>  <Smiles>
CN([C@H](CC1)C2)[C@@H]1C[C@H]2OC(c1ccccc1)c1ccccc1

$$$$

Actelion Java MolfileCreator 2.0

  0  0  0  0  0  0              0 V3000
M  V30 BEGIN CTAB
M  V30 COUNTS 20 22 0 0 0
M  V30 BEGIN ATOM
M  V30 1 N 1.732 -0.5 0.0 0
M  V30 2 C 0.866 0.0 0.0 0
M  V30 3 C 1.732 -1.5 0.0 0
M  V30 4 C 2.598 0.0 0.0 0
M  V30 5 C 0.866 1.0 0.0 0
M  V30 6 C 0.0 -0.5 0.0 0
M  V30 7 C 2.598 -2.0 0.0 0
M  V30 8 C 3.4641 -0.5 0.0 0
M  V30 9 C 1.732 1.4999 0.0 0
M  V30 10 C 0.0 1.4999 0.0 0
M  V30 11 C -0.866 0.0 0.0 0
M  V30 12 C 0.0 -1.4999 0.0 0
M  V30 13 N 3.4641 -1.5 0.0 0
M  V30 14 C 1.732 2.5 0.0 0
M  V30 15 C 0.0 2.5 0.0 0
M  V30 16 C -1.732 -0.4999 0.0 0
M  V30 17 C -0.866 -1.9999 0.0 0
M  V30 18 C 4.3301 -2.0 0.0 0
M  V30 19 C 0.866 3.0 0.0 0
M  V30 20 C -1.732 -1.4999 0.0 0
M  V30 END ATOM
M  V30 BEGIN BOND
M  V30 1 1 1 2
M  V30 2 1 1 3
M  V30 3 1 1 4
M  V30 4 1 2 5
M  V30 5 1 2 6
M  V30 6 1 3 7
M  V30 7 1 4 8
M  V30 8 2 5 9
M  V30 9 1 5 10
M  V30 10 2 6 11
M  V30 11 1 6 12
M  V30 12 1 7 13
M  V30 13 1 9 14
M  V30 14 2 10 15
M  V30 15 1 11 16
M  V30 16 2 12 17
M  V30 17 1 13 18
M  V30 18 2 14 19
M  V30 19 2 16 20
M  V30 20 1 8 13
M  V30 21 1 15 19
M  V30 22 1 17 20
M  V30 END BOND
M  V30 END CTAB
M  END
>  <Molecule Name>


>  <status>
DISCONTINUED

>  <cas>
82-92-8

>  <name>
CYCLIZINE

>  <ID>
1215

>  <Smiles>
CN(CC1)CCN1C(c1ccccc1)c1ccccc1

$$$$

Actelion Java MolfileCreator 2.0

  0  0  0  0  0  0              0 V3000
M  V30 BEGIN CTAB
M  V30 COUNTS 22 26 0 0 0
M  V30 BEGIN ATOM
M  V30 1 O 2.9446 0.9802 0.0 0
M  V30 2 C 2.6138 0.0365 0.0 0
M  V30 3 C 3.9443 0.9572 0.0 0 CFG=2
M  V30 4 C 1.732 -0.5 0.0 0
M  V30 5 C 3.409 -0.5697 0.0 0
M  V30 6 C 4.2314 -7.0E-4 0.0 0 CFG=2
M  V30 7 C 4.7573 1.5932 0.0 0 CFG=1
M  V30 8 O 0.866 0.0 0.0 0
M  V30 9 C 1.709 -1.4997 0.0 0
M  V30 10 C 3.4906 -1.5663 0.0 0
M  V30 11 C 5.1353 -0.4283 0.0 0 CFG=2
M  V30 12 C 5.2908 0.7539 0.0 0
M  V30 13 O 4.5946 2.5799 0.0 0
M  V30 14 C 5.7009 1.2624 0.0 0
M  V30 15 C 0.0 -0.5 0.0 0
M  V30 16 C 2.5633 -2.0195 0.0 0
M  V30 17 C 4.3946 -1.994 0.0 0
M  V30 18 C 5.2169 -1.425 0.0 0 CFG=1
M  V30 19 C 5.8162 0.205 0.0 0
M  V30 20 C 6.2633 0.3398 0.0 0
M  V30 21 N 6.3134 -0.6663 0.0 0
M  V30 22 C 7.2173 -1.094 0.0 0
M  V30 END ATOM
M  V30 BEGIN BOND
M  V30 1 1 1 2
M  V30 2 1 3 1 CFG=1
M  V30 3 2 2 4
M  V30 4 1 2 5
M  V30 5 1 6 3
M  V30 6 1 7 3
M  V30 7 1 4 8
M  V30 8 1 4 9
M  V30 9 2 5 10
M  V30 10 1 11 6
M  V30 11 1 6 12 CFG=3
M  V30 12 1 7 13 CFG=1
M  V30 13 1 7 14
M  V30 14 1 8 15
M  V30 15 2 9 16
M  V30 16 1 10 17
M  V30 17 1 18 11
M  V30 18 1 11 19 CFG=1
M  V30 19 1 12 20
M  V30 20 1 18 21 CFG=3
M  V30 21 1 21 22
M  V30 22 1 5 6
M  V30 23 1 10 16
M  V30 24 1 14 19
M  V30 25 1 17 18
M  V30 26 1 20 21
M  V30 END BOND
M  V30 BEGIN COLLECTION
M  V30 MDLV30/STERAC1 ATOMS=(5 3 6 7 11 18)
M  V30 END COLLECTION
M  V30 END CTAB
M  END
>  <Molecule Name>


>  <status>
-

>  <cas>
125-28-0

>  <name>
DIHYDROCODEINE

>  <ID>
1216

>  <Smiles>
CN(CC1)[C@H](C2)[C@H](CC3)[C@@]11c4c2ccc(OC)c4O[C@H]1[C@H]3O

$$$$

Actelion Java MolfileCreator 2.0

  0  0  0  0  0  0              0 V3000
M  V30 BEGIN CTAB
M  V30 COUNTS 29 32 0 0 0
M  V30 BEGIN ATOM
M  V30 1 S 7.7942 -2.2499 0.0 0
M  V30 2 C 7.7942 -0.75 0.0 0
M  V30 3 C 6.4951 -2.9999 0.0 0
M  V30 4 C 6.4951 0.0 0.0 0
M  V30 5 C 9.0932 0.0 0.0 0
M  V30 6 C 5.1961 -2.25 0.0 0
M  V30 7 C 6.4951 -4.5 0.0 0
M  V30 8 N 5.1961 -0.75 0.0 0
M  V30 9 C 6.4951 1.5 0.0 0
M  V30 10 C 9.0932 1.5 0.0 0
M  V30 11 C 3.8971 -3.0 0.0 0
M  V30 12 C 5.1961 -5.25 0.0 0
M  V30 13 C 3.8971 0.0 0.0 0
M  V30 14 C 7.7942 2.25 0.0 0
M  V30 15 C 10.3923 2.25 0.0 0
M  V30 16 C 3.8971 -4.5 0.0 0
M  V30 17 C 2.598 -0.75 0.0 0
M  V30 18 O 11.6913 1.4999 0.0 0
M  V30 19 C 10.3923 3.75 0.0 0
M  V30 20 C 1.299 0.0 0.0 0
M  V30 21 N 0.0 -0.75 0.0 0
M  V30 22 C -1.299 0.0 0.0 0
M  V30 23 C 0.0 -2.2499 0.0 0
M  V30 24 C -2.598 -0.7499 0.0 0
M  V30 25 C -1.299 -2.9999 0.0 0
M  V30 26 N -2.598 -2.2499 0.0 0
M  V30 27 C -3.8971 -2.9999 0.0 0
M  V30 28 C -5.1961 -2.2499 0.0 0
M  V30 29 O -6.4951 -2.9999 0.0 0
M  V30 END ATOM
M  V30 BEGIN BOND
M  V30 1 1 1 2
M  V30 2 1 1 3
M  V30 3 2 2 4
M  V30 4 1 2 5
M  V30 5 2 3 6
M  V30 6 1 3 7
M  V30 7 1 4 8
M  V30 8 1 4 9
M  V30 9 2 5 10
M  V30 10 1 6 11
M  V30 11 2 7 12
M  V30 12 1 8 13
M  V30 13 2 9 14
M  V30 14 1 10 15
M  V30 15 2 11 16
M  V30 16 1 13 17
M  V30 17 2 15 18
M  V30 18 1 15 19
M  V30 19 1 17 20
M  V30 20 1 20 21
M  V30 21 1 21 22
M  V30 22 1 21 23
M  V30 23 1 22 24
M  V30 24 1 23 25
M  V30 25 1 24 26
M  V30 26 1 26 27
M  V30 27 1 27 28
M  V30 28 1 28 29
M  V30 29 1 6 8
M  V30 30 1 10 14
M  V30 31 1 12 16
M  V30 32 1 25 26
M  V30 END BOND
M  V30 END CTAB
M  END
>  <Molecule Name>


>  <status>
DISCONTINUED

>  <cas>
2751-68-0

>  <name>
ACETOPHENAZINE

>  <ID>
1217

>  <Smiles>
CC(c(cc1)cc2c1N(CCCN1CCN(CCO)CC1)c(cccc1)c1S2)=O

$$$$

Actelion Java MolfileCreator 2.0

  0  0  0  0  0  0              0 V3000
M  V30 BEGIN CTAB
M  V30 COUNTS 14 14 0 0 0
M  V30 BEGIN ATOM
M  V30 1 N 3.8971 0.0 0.0 0
M  V30 2 C 5.1961 -0.75 0.0 0
M  V30 3 C 2.598 -0.75 0.0 0
M  V30 4 N 6.4951 0.0 0.0 0
M  V30 5 N 5.1961 -2.25 0.0 0
M  V30 6 C 1.299 0.0 0.0 0
M  V30 7 N 0.0 -0.75 0.0 0
M  V30 8 C 0.1957 -2.2371 0.0 0
M  V30 9 C -1.19 0.1631 0.0 0
M  V30 10 C -0.7173 -3.4271 0.0 0
M  V30 11 C -2.6771 -0.0326 0.0 0
M  V30 12 C -2.2045 -3.6229 0.0 0
M  V30 13 C -3.5903 -1.2226 0.0 0
M  V30 14 C -3.3945 -2.7098 0.0 0
M  V30 END ATOM
M  V30 BEGIN BOND
M  V30 1 2 1 2
M  V30 2 1 1 3
M  V30 3 1 2 4
M  V30 4 1 2 5
M  V30 5 1 3 6
M  V30 6 1 6 7
M  V30 7 1 7 8
M  V30 8 1 7 9
M  V30 9 1 8 10
M  V30 10 1 9 11
M  V30 11 1 10 12
M  V30 12 1 11 13
M  V30 13 1 12 14
M  V30 14 1 13 14
M  V30 END BOND
M  V30 END CTAB
M  END
>  <Molecule Name>


>  <status>
DISCONTINUED

>  <cas>
55-65-2

>  <name>
GUANETHIDINE

>  <ID>
1218

>  <Smiles>
NC(N)=NCCN1CCCCCCC1

$$$$

Actelion Java MolfileCreator 2.0

  0  0  0  0  0  0              0 V3000
M  V30 BEGIN CTAB
M  V30 COUNTS 26 29 0 0 0
M  V30 BEGIN ATOM
M  V30 1 O 2.598 0.0 0.0 0
M  V30 2 C 3.4641 -0.5 0.0 0
M  V30 3 N 4.3301 0.0 0.0 0
M  V30 4 C 3.4641 -1.5 0.0 0 CFG=1
M  V30 5 C 5.1961 -0.4999 0.0 0 CFG=1
M  V30 6 C 2.598 -2.0 0.0 0
M  V30 7 C 4.3301 -1.9999 0.0 0
M  V30 8 C 5.1961 -1.5 0.0 0
M  V30 9 C 6.0621 0.0 0.0 0
M  V30 10 C 2.598 -3.0 0.0 0
M  V30 11 N 4.3301 -3.0 0.0 0
M  V30 12 O 6.0621 -1.9999 0.0 0
M  V30 13 C 6.9282 -0.5 0.0 0
M  V30 14 C 1.732 -3.4999 0.0 0
M  V30 15 C 3.4641 -3.5 0.0 0 CFG=1
M  V30 16 C 5.1961 -3.5 0.0 0
M  V30 17 C 1.732 -4.5 0.0 0
M  V30 18 C 0.7707 -3.124 0.0 0
M  V30 19 C 3.4641 -4.5 0.0 0
M  V30 20 C 0.9889 -5.1691 0.0 0
M  V30 21 C 2.598 -5.0 0.0 0
M  V30 22 C -0.0382 -3.7118 0.0 0
M  V30 23 N 1.3956 -6.0826 0.0 0
M  V30 24 C 0.0662 -4.7063 0.0 0
M  V30 25 C 2.3901 -5.9781 0.0 0
M  V30 26 C 0.8956 -6.9487 0.0 0
M  V30 END ATOM
M  V30 BEGIN BOND
M  V30 1 2 1 2
M  V30 2 1 2 3
M  V30 3 1 4 2 CFG=3
M  V30 4 1 5 3 CFG=3
M  V30 5 1 4 6
M  V30 6 1 4 7
M  V30 7 1 5 8
M  V30 8 1 5 9
M  V30 9 2 6 10
M  V30 10 1 7 11
M  V30 11 1 8 12
M  V30 12 1 9 13
M  V30 13 1 10 14
M  V30 14 1 15 10
M  V30 15 1 11 16
M  V30 16 2 14 17
M  V30 17 1 14 18
M  V30 18 1 15 19
M  V30 19 1 17 20
M  V30 20 1 17 21
M  V30 21 2 18 22
M  V30 22 1 20 23
M  V30 23 2 20 24
M  V30 24 2 21 25
M  V30 25 1 23 26
M  V30 26 1 15 11 CFG=1
M  V30 27 1 19 21
M  V30 28 1 22 24
M  V30 29 1 23 25
M  V30 END BOND
M  V30 BEGIN COLLECTION
M  V30 MDLV30/STERAC1 ATOMS=(3 4 5 15)
M  V30 END COLLECTION
M  V30 END CTAB
M  END
>  <Molecule Name>


>  <status>
DISCONTINUED

>  <cas>
361-37-5

>  <name>
METHYSERGIDE

>  <ID>
1219

>  <Smiles>
CC[C@H](CO)NC([C@H](CN(C)[C@H]1Cc2cn3C)C=C1c1c2c3ccc1)=O

$$$$

Actelion Java MolfileCreator 2.0

  0  0  0  0  0  0              0 V3000
M  V30 BEGIN CTAB
M  V30 COUNTS 30 33 0 0 0
M  V30 BEGIN ATOM
M  V30 1 S 7.7942 -2.25 0.0 0
M  V30 2 C 7.7942 -0.75 0.0 0
M  V30 3 C 6.4951 -2.9999 0.0 0
M  V30 4 C 6.4951 0.0 0.0 0
M  V30 5 C 9.0932 0.0 0.0 0
M  V30 6 C 5.1961 -2.25 0.0 0
M  V30 7 C 6.4951 -4.5 0.0 0
M  V30 8 N 5.1961 -0.75 0.0 0
M  V30 9 C 6.4951 1.5 0.0 0
M  V30 10 C 9.0932 1.5 0.0 0
M  V30 11 C 3.8971 -3.0 0.0 0
M  V30 12 C 5.1961 -5.25 0.0 0
M  V30 13 C 3.8971 0.0 0.0 0
M  V30 14 C 7.7942 2.25 0.0 0
M  V30 15 C 3.8971 -4.5 0.0 0
M  V30 16 C 2.598 -0.75 0.0 0
M  V30 17 C 7.7942 3.75 0.0 0
M  V30 18 C 1.299 0.0 0.0 0
M  V30 19 O 6.4951 4.5 0.0 0
M  V30 20 C 9.0932 4.5 0.0 0
M  V30 21 N 0.0 -0.75 0.0 0
M  V30 22 C 9.0932 6.0 0.0 0
M  V30 23 C -1.299 0.0 0.0 0
M  V30 24 C 0.0 -2.25 0.0 0
M  V30 25 C -2.598 -0.7499 0.0 0
M  V30 26 C -1.299 -2.9999 0.0 0
M  V30 27 N -2.598 -2.2499 0.0 0
M  V30 28 C -3.8971 -2.9999 0.0 0
M  V30 29 C -5.1961 -2.2499 0.0 0
M  V30 30 O -6.4951 -2.9999 0.0 0
M  V30 END ATOM
M  V30 BEGIN BOND
M  V30 1 1 1 2
M  V30 2 1 1 3
M  V30 3 2 2 4
M  V30 4 1 2 5
M  V30 5 2 3 6
M  V30 6 1 3 7
M  V30 7 1 4 8
M  V30 8 1 4 9
M  V30 9 2 5 10
M  V30 10 1 6 11
M  V30 11 2 7 12
M  V30 12 1 8 13
M  V30 13 2 9 14
M  V30 14 2 11 15
M  V30 15 1 13 16
M  V30 16 1 14 17
M  V30 17 1 16 18
M  V30 18 2 17 19
M  V30 19 1 17 20
M  V30 20 1 18 21
M  V30 21 1 20 22
M  V30 22 1 21 23
M  V30 23 1 21 24
M  V30 24 1 23 25
M  V30 25 1 24 26
M  V30 26 1 25 27
M  V30 27 1 27 28
M  V30 28 1 28 29
M  V30 29 1 29 30
M  V30 30 1 6 8
M  V30 31 1 10 14
M  V30 32 1 12 15
M  V30 33 1 26 27
M  V30 END BOND
M  V30 END CTAB
M  END
>  <Molecule Name>


>  <status>
DISCONTINUED

>  <cas>
2622-30-2

>  <name>
CARPHENAZINE

>  <ID>
1220

>  <Smiles>
CCC(c(cc1)cc2c1Sc(cccc1)c1N2CCCN1CCN(CCO)CC1)=O

$$$$

Actelion Java MolfileCreator 2.0

  0  0  0  0  0  0              0 V3000
M  V30 BEGIN CTAB
M  V30 COUNTS 15 15 0 0 0
M  V30 BEGIN ATOM
M  V30 1 O 10.3923 -0.75 0.0 0
M  V30 2 C 9.0932 0.0 0.0 0
M  V30 3 C 9.0932 1.4999 0.0 0
M  V30 4 C 7.7942 -0.75 0.0 0
M  V30 5 C 7.7942 2.2499 0.0 0
M  V30 6 C 6.4951 0.0 0.0 0
M  V30 7 O 7.7942 3.7499 0.0 0
M  V30 8 C 6.4951 1.5 0.0 0
M  V30 9 C 5.1961 -0.75 0.0 0 CFG=1
M  V30 10 O 5.1961 -2.25 0.0 0
M  V30 11 C 3.8971 0.0 0.0 0
M  V30 12 N 2.598 -0.75 0.0 0
M  V30 13 C 1.299 0.0 0.0 0
M  V30 14 C 1.299 1.5 0.0 0
M  V30 15 C 0.0 -0.75 0.0 0
M  V30 END ATOM
M  V30 BEGIN BOND
M  V30 1 1 1 2
M  V30 2 2 2 3
M  V30 3 1 2 4
M  V30 4 1 3 5
M  V30 5 2 4 6
M  V30 6 1 5 7
M  V30 7 2 5 8
M  V30 8 1 9 6
M  V30 9 1 9 10 CFG=1
M  V30 10 1 9 11
M  V30 11 1 11 12
M  V30 12 1 12 13
M  V30 13 1 13 14
M  V30 14 1 13 15
M  V30 15 1 6 8
M  V30 END BOND
M  V30 BEGIN COLLECTION
M  V30 MDLV30/STERAC1 ATOMS=(1 9)
M  V30 END COLLECTION
M  V30 END CTAB
M  END
>  <Molecule Name>


>  <status>
-

>  <cas>
586-06-1

>  <name>
METAPROTERENOL

>  <ID>
1221

>  <Smiles>
CC(C)NCC(c1cc(O)cc(O)c1)O

$$$$

Actelion Java MolfileCreator 2.0

  0  0  0  0  0  0              0 V3000
M  V30 BEGIN CTAB
M  V30 COUNTS 15 15 0 0 0
M  V30 BEGIN ATOM
M  V30 1 O 10.3923 -0.75 0.0 0
M  V30 2 C 9.0932 0.0 0.0 0
M  V30 3 C 9.0932 1.4999 0.0 0
M  V30 4 C 7.7942 -0.75 0.0 0
M  V30 5 C 7.7942 2.2499 0.0 0
M  V30 6 C 6.4951 0.0 0.0 0
M  V30 7 O 7.7942 3.7499 0.0 0
M  V30 8 C 6.4951 1.5 0.0 0
M  V30 9 C 5.1961 -0.75 0.0 0 CFG=1
M  V30 10 O 5.1961 -2.25 0.0 0
M  V30 11 C 3.8971 0.0 0.0 0
M  V30 12 N 2.598 -0.75 0.0 0
M  V30 13 C 1.299 0.0 0.0 0
M  V30 14 C 1.299 1.5 0.0 0
M  V30 15 C 0.0 -0.75 0.0 0
M  V30 END ATOM
M  V30 BEGIN BOND
M  V30 1 1 1 2
M  V30 2 2 2 3
M  V30 3 1 2 4
M  V30 4 1 3 5
M  V30 5 2 4 6
M  V30 6 1 5 7
M  V30 7 2 5 8
M  V30 8 1 9 6
M  V30 9 1 9 10 CFG=1
M  V30 10 1 9 11
M  V30 11 1 11 12
M  V30 12 1 12 13
M  V30 13 1 13 14
M  V30 14 1 13 15
M  V30 15 1 6 8
M  V30 END BOND
M  V30 BEGIN COLLECTION
M  V30 MDLV30/STERAC1 ATOMS=(1 9)
M  V30 END COLLECTION
M  V30 END CTAB
M  END
>  <Molecule Name>


>  <status>
-

>  <cas>
586-06-1

>  <name>
METAPROTERENOL

>  <ID>
1222

>  <Smiles>
CC(C)NCC(c1cc(O)cc(O)c1)O

$$$$

Actelion Java MolfileCreator 2.0

  0  0  0  0  0  0              0 V3000
M  V30 BEGIN CTAB
M  V30 COUNTS 12 12 0 0 0
M  V30 BEGIN ATOM
M  V30 1 S 6.4951 -3.0 0.0 0
M  V30 2 O 5.7451 -4.299 0.0 0
M  V30 3 O 7.2451 -1.7009 0.0 0
M  V30 4 N 7.7942 -3.75 0.0 0
M  V30 5 C 5.1961 -2.2499 0.0 0
M  V30 6 C 5.1961 -0.75 0.0 0
M  V30 7 C 3.8971 -2.9999 0.0 0
M  V30 8 C 3.8971 0.0 0.0 0
M  V30 9 C 2.598 -2.25 0.0 0
M  V30 10 C 2.598 -0.75 0.0 0
M  V30 11 C 1.299 0.0 0.0 0
M  V30 12 N 0.0 -0.75 0.0 0
M  V30 END ATOM
M  V30 BEGIN BOND
M  V30 1 2 1 2
M  V30 2 2 1 3
M  V30 3 1 1 4
M  V30 4 1 1 5
M  V30 5 2 5 6
M  V30 6 1 5 7
M  V30 7 1 6 8
M  V30 8 2 7 9
M  V30 9 2 8 10
M  V30 10 1 10 11
M  V30 11 1 11 12
M  V30 12 1 9 10
M  V30 END BOND
M  V30 END CTAB
M  END
>  <Molecule Name>


>  <status>
-

>  <cas>
138-39-6

>  <name>
MAFENIDE

>  <ID>
1223

>  <Smiles>
NCc(cc1)ccc1S(N)(=O)=O

$$$$

Actelion Java MolfileCreator 2.0

  0  0  0  0  0  0              0 V3000
M  V30 BEGIN CTAB
M  V30 COUNTS 26 29 0 0 0
M  V30 BEGIN ATOM
M  V30 1 S 0.866 2.9999 0.0 0 CFG=2
M  V30 2 O 0.0 2.4999 0.0 0
M  V30 3 C 1.732 2.4999 0.0 0
M  V30 4 C 0.866 3.9999 0.0 0
M  V30 5 C 1.732 1.5 0.0 0
M  V30 6 C 2.598 3.0 0.0 0
M  V30 7 C 2.598 1.0 0.0 0
M  V30 8 C 3.4641 2.4999 0.0 0
M  V30 9 N 2.598 0.0 0.0 0
M  V30 10 C 3.4641 1.5 0.0 0
M  V30 11 C 3.4641 -0.4999 0.0 0
M  V30 12 C 1.732 -0.5 0.0 0
M  V30 13 S 4.3301 1.0 0.0 0
M  V30 14 C 4.3301 0.0 0.0 0
M  V30 15 C 3.4641 -1.4999 0.0 0
M  V30 16 C 0.866 0.0 0.0 0
M  V30 17 C 5.1961 -0.4999 0.0 0
M  V30 18 C 4.3301 -1.9999 0.0 0
M  V30 19 C 0.0 -0.5 0.0 0 CFG=1
M  V30 20 C 5.1961 -1.4999 0.0 0
M  V30 21 N -0.866 0.0 0.0 0
M  V30 22 C 0.0 -1.4999 0.0 0
M  V30 23 C -1.732 -0.4999 0.0 0
M  V30 24 C -0.866 1.0 0.0 0
M  V30 25 C -0.866 -1.9999 0.0 0
M  V30 26 C -1.732 -1.4999 0.0 0
M  V30 END ATOM
M  V30 BEGIN BOND
M  V30 1 2 1 2
M  V30 2 1 1 3
M  V30 3 1 1 4 CFG=1
M  V30 4 2 3 5
M  V30 5 1 3 6
M  V30 6 1 5 7
M  V30 7 2 6 8
M  V30 8 1 7 9
M  V30 9 2 7 10
M  V30 10 1 9 11
M  V30 11 1 9 12
M  V30 12 1 10 13
M  V30 13 2 11 14
M  V30 14 1 11 15
M  V30 15 1 12 16
M  V30 16 1 14 17
M  V30 17 2 15 18
M  V30 18 1 19 16 CFG=3
M  V30 19 2 17 20
M  V30 20 1 19 21
M  V30 21 1 19 22
M  V30 22 1 21 23
M  V30 23 1 21 24
M  V30 24 1 22 25
M  V30 25 1 23 26
M  V30 26 1 8 10
M  V30 27 1 13 14
M  V30 28 1 18 20
M  V30 29 1 25 26
M  V30 END BOND
M  V30 BEGIN COLLECTION
M  V30 MDLV30/STERAC1 ATOMS=(2 1 19)
M  V30 END COLLECTION
M  V30 END CTAB
M  END
>  <Molecule Name>


>  <status>
DISCONTINUED

>  <cas>
5588-33-0

>  <name>
MESORIDAZINE

>  <ID>
1224

>  <Smiles>
CN1[C@H](CCN2c(cc(cc3)[S@@](C)=O)c3Sc3c2cccc3)CCCC1

$$$$

Actelion Java MolfileCreator 2.0

  0  0  0  0  0  0              0 V3000
M  V30 BEGIN CTAB
M  V30 COUNTS 26 29 0 0 0
M  V30 BEGIN ATOM
M  V30 1 S 0.866 2.9999 0.0 0 CFG=2
M  V30 2 O 0.0 2.4999 0.0 0
M  V30 3 C 1.732 2.4999 0.0 0
M  V30 4 C 0.866 3.9999 0.0 0
M  V30 5 C 1.732 1.5 0.0 0
M  V30 6 C 2.598 3.0 0.0 0
M  V30 7 C 2.598 1.0 0.0 0
M  V30 8 C 3.4641 2.4999 0.0 0
M  V30 9 N 2.598 0.0 0.0 0
M  V30 10 C 3.4641 1.5 0.0 0
M  V30 11 C 3.4641 -0.4999 0.0 0
M  V30 12 C 1.732 -0.5 0.0 0
M  V30 13 S 4.3301 1.0 0.0 0
M  V30 14 C 4.3301 0.0 0.0 0
M  V30 15 C 3.4641 -1.4999 0.0 0
M  V30 16 C 0.866 0.0 0.0 0
M  V30 17 C 5.1961 -0.4999 0.0 0
M  V30 18 C 4.3301 -1.9999 0.0 0
M  V30 19 C 0.0 -0.5 0.0 0 CFG=2
M  V30 20 C 5.1961 -1.4999 0.0 0
M  V30 21 N -0.866 0.0 0.0 0
M  V30 22 C 0.0 -1.4999 0.0 0
M  V30 23 C -1.732 -0.4999 0.0 0
M  V30 24 C -0.866 1.0 0.0 0
M  V30 25 C -0.866 -1.9999 0.0 0
M  V30 26 C -1.732 -1.4999 0.0 0
M  V30 END ATOM
M  V30 BEGIN BOND
M  V30 1 2 1 2
M  V30 2 1 1 3
M  V30 3 1 1 4 CFG=1
M  V30 4 2 3 5
M  V30 5 1 3 6
M  V30 6 1 5 7
M  V30 7 2 6 8
M  V30 8 1 7 9
M  V30 9 2 7 10
M  V30 10 1 9 11
M  V30 11 1 9 12
M  V30 12 1 10 13
M  V30 13 2 11 14
M  V30 14 1 11 15
M  V30 15 1 12 16
M  V30 16 1 14 17
M  V30 17 2 15 18
M  V30 18 1 19 16 CFG=1
M  V30 19 2 17 20
M  V30 20 1 19 21
M  V30 21 1 19 22
M  V30 22 1 21 23
M  V30 23 1 21 24
M  V30 24 1 22 25
M  V30 25 1 23 26
M  V30 26 1 8 10
M  V30 27 1 13 14
M  V30 28 1 18 20
M  V30 29 1 25 26
M  V30 END BOND
M  V30 BEGIN COLLECTION
M  V30 MDLV30/STERAC1 ATOMS=(2 1 19)
M  V30 END COLLECTION
M  V30 END CTAB
M  END
>  <Molecule Name>


>  <status>
DISCONTINUED

>  <cas>
5588-33-0

>  <name>
MESORIDAZINE

>  <ID>
1225

>  <Smiles>
CN1[C@@H](CCN2c(cc(cc3)[S@@](C)=O)c3Sc3c2cccc3)CCCC1

$$$$

Actelion Java MolfileCreator 2.0

  0  0  0  0  0  0              0 V3000
M  V30 BEGIN CTAB
M  V30 COUNTS 22 24 0 0 0
M  V30 BEGIN ATOM
M  V30 1 Cl 6.3792 -2.0283 0.0 0
M  V30 2 C 5.3792 -2.0283 0.0 0
M  V30 3 C 4.8792 -1.1623 0.0 0
M  V30 4 C 4.8792 -2.8943 0.0 0
M  V30 5 C 3.8792 -1.1623 0.0 0
M  V30 6 C 3.8792 -2.8943 0.0 0
M  V30 7 C 3.5138 -0.2314 0.0 0
M  V30 8 C 3.3792 -2.0283 0.0 0
M  V30 9 N 2.5582 0.0633 0.0 0
M  V30 10 C 4.194 0.5016 0.0 0
M  V30 11 N 2.3903 -2.1773 0.0 0
M  V30 12 C 1.732 -0.5 0.0 0 CFG=2
M  V30 13 C 5.1689 0.279 0.0 0
M  V30 14 C 3.8992 1.4571 0.0 0
M  V30 15 C 1.6573 -1.4972 0.0 0
M  V30 16 C 0.866 0.0 0.0 0
M  V30 17 C 5.8491 1.0121 0.0 0
M  V30 18 C 4.5794 2.1902 0.0 0
M  V30 19 O 0.7264 -1.8625 0.0 0
M  V30 20 O 0.866 1.0 0.0 0
M  V30 21 O 0.0 -0.5 0.0 0 CHG=-1
M  V30 22 C 5.5543 1.9677 0.0 0
M  V30 END ATOM
M  V30 BEGIN BOND
M  V30 1 1 1 2
M  V30 2 2 2 3
M  V30 3 1 2 4
M  V30 4 1 3 5
M  V30 5 2 4 6
M  V30 6 1 5 7
M  V30 7 2 5 8
M  V30 8 2 7 9
M  V30 9 1 7 10
M  V30 10 1 8 11
M  V30 11 1 12 9
M  V30 12 2 10 13
M  V30 13 1 10 14
M  V30 14 1 11 15
M  V30 15 1 12 16 CFG=3
M  V30 16 1 13 17
M  V30 17 2 14 18
M  V30 18 2 15 19
M  V30 19 2 16 20
M  V30 20 1 16 21
M  V30 21 2 17 22
M  V30 22 1 6 8
M  V30 23 1 12 15
M  V30 24 1 18 22
M  V30 END BOND
M  V30 BEGIN COLLECTION
M  V30 MDLV30/STERAC1 ATOMS=(1 12)
M  V30 END COLLECTION
M  V30 END CTAB
M  END
>  <Molecule Name>


>  <status>
-

>  <cas>
23887-31-2

>  <name>
CLORAZEPATE

>  <ID>
1226

>  <Smiles>
[O-]C(C1N=C(c2ccccc2)c(cc(cc2)Cl)c2NC1=O)=O

$$$$

Actelion Java MolfileCreator 2.0

  0  0  0  0  0  0              0 V3000
M  V30 BEGIN CTAB
M  V30 COUNTS 16 16 0 0 0
M  V30 BEGIN ATOM
M  V30 1 O 6.4951 -4.5 0.0 0
M  V30 2 C 6.4951 -3.0 0.0 0
M  V30 3 C 7.7942 -2.25 0.0 0
M  V30 4 C 5.1961 -2.25 0.0 0
M  V30 5 C 7.7942 -0.75 0.0 0
M  V30 6 C 5.1961 -0.75 0.0 0
M  V30 7 O 9.0932 0.0 0.0 0
M  V30 8 C 6.4951 0.0 0.0 0
M  V30 9 C 3.8971 0.0 0.0 0 CFG=1
M  V30 10 O 3.8971 1.5 0.0 0
M  V30 11 C 2.598 -0.75 0.0 0
M  V30 12 N 1.299 0.0 0.0 0
M  V30 13 C 0.0 -0.75 0.0 0
M  V30 14 C 0.7499 -2.049 0.0 0
M  V30 15 C -1.299 -1.4999 0.0 0
M  V30 16 C -0.7499 0.549 0.0 0
M  V30 END ATOM
M  V30 BEGIN BOND
M  V30 1 1 1 2
M  V30 2 2 2 3
M  V30 3 1 2 4
M  V30 4 1 3 5
M  V30 5 2 4 6
M  V30 6 1 5 7
M  V30 7 2 5 8
M  V30 8 1 9 6
M  V30 9 1 9 10 CFG=3
M  V30 10 1 9 11
M  V30 11 1 11 12
M  V30 12 1 12 13
M  V30 13 1 13 14
M  V30 14 1 13 15
M  V30 15 1 13 16
M  V30 16 1 6 8
M  V30 END BOND
M  V30 BEGIN COLLECTION
M  V30 MDLV30/STERAC1 ATOMS=(1 9)
M  V30 END COLLECTION
M  V30 END CTAB
M  END
>  <Molecule Name>


>  <status>
-

>  <cas>
23031-25-6

>  <name>
TERBUTALINE

>  <ID>
1227

>  <Smiles>
CC(C)(C)NCC(c1cc(O)cc(O)c1)O

$$$$

Actelion Java MolfileCreator 2.0

  0  0  0  0  0  0              0 V3000
M  V30 BEGIN CTAB
M  V30 COUNTS 22 24 0 0 0
M  V30 BEGIN ATOM
M  V30 1 Cl 6.3792 -2.0283 0.0 0
M  V30 2 C 5.3792 -2.0283 0.0 0
M  V30 3 C 4.8792 -1.1623 0.0 0
M  V30 4 C 4.8792 -2.8943 0.0 0
M  V30 5 C 3.8792 -1.1623 0.0 0
M  V30 6 C 3.8792 -2.8943 0.0 0
M  V30 7 C 3.5138 -0.2314 0.0 0
M  V30 8 C 3.3792 -2.0283 0.0 0
M  V30 9 N 2.5582 0.0633 0.0 0
M  V30 10 C 4.194 0.5016 0.0 0
M  V30 11 N 2.3903 -2.1773 0.0 0
M  V30 12 C 1.732 -0.5 0.0 0 CFG=2
M  V30 13 C 5.1689 0.279 0.0 0
M  V30 14 C 3.8992 1.4571 0.0 0
M  V30 15 C 1.6573 -1.4972 0.0 0
M  V30 16 C 0.866 0.0 0.0 0
M  V30 17 C 5.8491 1.0121 0.0 0
M  V30 18 C 4.5794 2.1902 0.0 0
M  V30 19 O 0.7264 -1.8625 0.0 0
M  V30 20 O 0.866 1.0 0.0 0
M  V30 21 O 0.0 -0.5 0.0 0 CHG=-1
M  V30 22 C 5.5543 1.9677 0.0 0
M  V30 END ATOM
M  V30 BEGIN BOND
M  V30 1 1 1 2
M  V30 2 2 2 3
M  V30 3 1 2 4
M  V30 4 1 3 5
M  V30 5 2 4 6
M  V30 6 1 5 7
M  V30 7 2 5 8
M  V30 8 2 7 9
M  V30 9 1 7 10
M  V30 10 1 8 11
M  V30 11 1 12 9
M  V30 12 2 10 13
M  V30 13 1 10 14
M  V30 14 1 11 15
M  V30 15 1 12 16 CFG=3
M  V30 16 1 13 17
M  V30 17 2 14 18
M  V30 18 2 15 19
M  V30 19 2 16 20
M  V30 20 1 16 21
M  V30 21 2 17 22
M  V30 22 1 6 8
M  V30 23 1 12 15
M  V30 24 1 18 22
M  V30 END BOND
M  V30 BEGIN COLLECTION
M  V30 MDLV30/STERAC1 ATOMS=(1 12)
M  V30 END COLLECTION
M  V30 END CTAB
M  END
>  <Molecule Name>


>  <status>
-

>  <cas>
23887-31-2

>  <name>
CLORAZEPATE

>  <ID>
1228

>  <Smiles>
[O-]C(C1N=C(c2ccccc2)c(cc(cc2)Cl)c2NC1=O)=O

$$$$

Actelion Java MolfileCreator 2.0

  0  0  0  0  0  0              0 V3000
M  V30 BEGIN CTAB
M  V30 COUNTS 16 16 0 0 0
M  V30 BEGIN ATOM
M  V30 1 O 6.4951 -4.5 0.0 0
M  V30 2 C 6.4951 -3.0 0.0 0
M  V30 3 C 7.7942 -2.25 0.0 0
M  V30 4 C 5.1961 -2.25 0.0 0
M  V30 5 C 7.7942 -0.75 0.0 0
M  V30 6 C 5.1961 -0.75 0.0 0
M  V30 7 O 9.0932 0.0 0.0 0
M  V30 8 C 6.4951 0.0 0.0 0
M  V30 9 C 3.8971 0.0 0.0 0 CFG=1
M  V30 10 O 3.8971 1.5 0.0 0
M  V30 11 C 2.598 -0.75 0.0 0
M  V30 12 N 1.299 0.0 0.0 0
M  V30 13 C 0.0 -0.75 0.0 0
M  V30 14 C 0.7499 -2.049 0.0 0
M  V30 15 C -1.299 -1.4999 0.0 0
M  V30 16 C -0.7499 0.549 0.0 0
M  V30 END ATOM
M  V30 BEGIN BOND
M  V30 1 1 1 2
M  V30 2 2 2 3
M  V30 3 1 2 4
M  V30 4 1 3 5
M  V30 5 2 4 6
M  V30 6 1 5 7
M  V30 7 2 5 8
M  V30 8 1 9 6
M  V30 9 1 9 10 CFG=3
M  V30 10 1 9 11
M  V30 11 1 11 12
M  V30 12 1 12 13
M  V30 13 1 13 14
M  V30 14 1 13 15
M  V30 15 1 13 16
M  V30 16 1 6 8
M  V30 END BOND
M  V30 BEGIN COLLECTION
M  V30 MDLV30/STERAC1 ATOMS=(1 9)
M  V30 END COLLECTION
M  V30 END CTAB
M  END
>  <Molecule Name>


>  <status>
-

>  <cas>
23031-25-6

>  <name>
TERBUTALINE

>  <ID>
1229

>  <Smiles>
CC(C)(C)NCC(c1cc(O)cc(O)c1)O

$$$$

Actelion Java MolfileCreator 2.0

  0  0  0  0  0  0              0 V3000
M  V30 BEGIN CTAB
M  V30 COUNTS 22 25 0 0 0
M  V30 BEGIN ATOM
M  V30 1 N -0.1642 1.2919 0.0 0
M  V30 2 C 0.7912 0.9972 0.0 0
M  V30 3 C -0.3867 2.2668 0.0 0
M  V30 4 C 0.866 0.0 0.0 0
M  V30 5 C 1.5243 1.6773 0.0 0
M  V30 6 C 0.3462 2.947 0.0 0
M  V30 7 C 1.6922 -0.5633 0.0 0
M  V30 8 C 0.0 -0.5 0.0 0
M  V30 9 C 1.3018 2.6523 0.0 0
M  V30 10 C 2.5131 1.5283 0.0 0
M  V30 11 C 2.6478 -0.2685 0.0 0
M  V30 12 C 1.4697 -1.5382 0.0 0
M  V30 13 C -0.866 0.0 0.0 0
M  V30 14 C 0.0 -1.4999 0.0 0
M  V30 15 C 3.0131 0.6623 0.0 0
M  V30 16 C 3.3808 -0.9487 0.0 0
M  V30 17 C 2.2027 -2.2184 0.0 0
M  V30 18 C -1.732 -0.4999 0.0 0
M  V30 19 C -0.866 -1.9999 0.0 0
M  V30 20 C 3.1583 -1.9236 0.0 0
M  V30 21 N -1.732 -1.4999 0.0 0
M  V30 22 C -2.598 -1.9999 0.0 0
M  V30 END ATOM
M  V30 BEGIN BOND
M  V30 1 2 1 2
M  V30 2 1 1 3
M  V30 3 1 2 4
M  V30 4 1 2 5
M  V30 5 2 3 6
M  V30 6 1 4 7
M  V30 7 2 4 8
M  V30 8 2 5 9
M  V30 9 1 5 10
M  V30 10 2 7 11
M  V30 11 1 7 12
M  V30 12 1 8 13
M  V30 13 1 8 14
M  V30 14 1 10 15
M  V30 15 1 11 16
M  V30 16 2 12 17
M  V30 17 1 13 18
M  V30 18 1 14 19
M  V30 19 2 16 20
M  V30 20 1 18 21
M  V30 21 1 21 22
M  V30 22 1 6 9
M  V30 23 1 11 15
M  V30 24 1 17 20
M  V30 25 1 19 21
M  V30 END BOND
M  V30 END CTAB
M  END
>  <Molecule Name>


>  <status>
DISCONTINUED

>  <cas>
3964-81-6

>  <name>
AZATADINE

>  <ID>
1230

>  <Smiles>
CN(CC1)CCC1=C1c2ncccc2CCc2c1cccc2

$$$$

Actelion Java MolfileCreator 2.0

  0  0  0  0  0  0              0 V3000
M  V30 BEGIN CTAB
M  V30 COUNTS 24 26 0 0 0
M  V30 BEGIN ATOM
M  V30 1 Cl 6.9282 1.4999 0.0 0
M  V30 2 C 6.0621 0.9999 0.0 0
M  V30 3 C 5.1961 1.4999 0.0 0
M  V30 4 C 6.0621 0.0 0.0 0
M  V30 5 C 4.3301 0.9999 0.0 0
M  V30 6 C 5.1961 -0.5 0.0 0
M  V30 7 C 4.3301 0.0 0.0 0
M  V30 8 C 3.4641 -0.5 0.0 0 CFG=1
M  V30 9 O 2.598 0.0 0.0 0
M  V30 10 C 3.4641 -1.5 0.0 0
M  V30 11 C 3.4641 0.5 0.0 0
M  V30 12 C 1.732 -0.5 0.0 0
M  V30 13 C 2.598 -2.0 0.0 0
M  V30 14 C 4.3301 -1.9999 0.0 0
M  V30 15 C 0.866 0.0 0.0 0
M  V30 16 C 2.598 -3.0 0.0 0
M  V30 17 C 4.3301 -2.9999 0.0 0
M  V30 18 C 0.0 -0.5 0.0 0 CFG=1
M  V30 19 C 3.4641 -3.4999 0.0 0
M  V30 20 N -0.9135 -0.0932 0.0 0
M  V30 21 C -0.1045 -1.4945 0.0 0
M  V30 22 C -1.5826 -0.8364 0.0 0
M  V30 23 C -1.1214 0.8848 0.0 0
M  V30 24 C -1.0826 -1.7024 0.0 0
M  V30 END ATOM
M  V30 BEGIN BOND
M  V30 1 1 1 2
M  V30 2 2 2 3
M  V30 3 1 2 4
M  V30 4 1 3 5
M  V30 5 2 4 6
M  V30 6 2 5 7
M  V30 7 1 8 7
M  V30 8 1 8 9
M  V30 9 1 8 10
M  V30 10 1 8 11 CFG=1
M  V30 11 1 9 12
M  V30 12 2 10 13
M  V30 13 1 10 14
M  V30 14 1 12 15
M  V30 15 1 13 16
M  V30 16 2 14 17
M  V30 17 1 18 15 CFG=3
M  V30 18 2 16 19
M  V30 19 1 18 20
M  V30 20 1 18 21
M  V30 21 1 20 22
M  V30 22 1 20 23
M  V30 23 1 21 24
M  V30 24 1 6 7
M  V30 25 1 17 19
M  V30 26 1 22 24
M  V30 END BOND
M  V30 BEGIN COLLECTION
M  V30 MDLV30/STERAC1 ATOMS=(2 8 18)
M  V30 END COLLECTION
M  V30 END CTAB
M  END
>  <Molecule Name>


>  <status>
-

>  <cas>
15686-51-8

>  <name>
CLEMASTINE

>  <ID>
1231

>  <Smiles>
C[C@](c1ccccc1)(c(cc1)ccc1Cl)OCC[C@H]1N(C)CCC1

$$$$
Molecule-1
Actelion Java MolfileCreator 2.0

  0  0  0  0  0  0              0 V3000
M  V30 BEGIN CTAB
M  V30 COUNTS 13 13 0 0 0
M  V30 BEGIN ATOM
M  V30 1 N 2.598 0.0 0.0 0
M  V30 2 C 1.732 -0.5 0.0 0
M  V30 3 C 3.4641 -0.5 0.0 0
M  V30 4 N 1.732 -1.5 0.0 0
M  V30 5 N 0.866 0.0 0.0 0
M  V30 6 C 4.3301 0.0 0.0 0
M  V30 7 C 2.598 -1.9999 0.0 0
M  V30 8 C 0.0 -0.5 0.0 0
M  V30 9 C 5.1961 -0.4999 0.0 0
M  V30 10 C 4.3301 0.9999 0.0 0
M  V30 11 C 6.0621 0.0 0.0 0
M  V30 12 C 5.1961 1.4999 0.0 0
M  V30 13 C 6.0621 1.0 0.0 0
M  V30 END ATOM
M  V30 BEGIN BOND
M  V30 1 2 1 2
M  V30 2 1 1 3
M  V30 3 1 2 4
M  V30 4 1 2 5
M  V30 5 1 3 6
M  V30 6 1 4 7
M  V30 7 1 5 8
M  V30 8 2 6 9
M  V30 9 1 6 10
M  V30 10 1 9 11
M  V30 11 2 10 12
M  V30 12 2 11 13
M  V30 13 1 12 13
M  V30 END BOND
M  V30 END CTAB
M  END
>  <Molecule Name>
Molecule-1

>  <status>
DISCONTINUED

>  <cas>
55-73-2

>  <name>
BETHANIDINE

>  <ID>
1232

>  <Smiles>
CNC(NC)=NCc1ccccc1

$$$$

Actelion Java MolfileCreator 2.0

  0  0  0  0  0  0              0 V3000
M  V30 BEGIN CTAB
M  V30 COUNTS 34 35 0 0 0
M  V30 BEGIN ATOM
M  V30 1 Cl 17.3205 1.4999 0.0 0
M  V30 2 C 16.4544 0.9999 0.0 0
M  V30 3 C 15.5884 1.4999 0.0 0
M  V30 4 C 16.4544 0.0 0.0 0
M  V30 5 C 14.7224 0.9999 0.0 0
M  V30 6 C 15.5884 -0.5 0.0 0
M  V30 7 C 14.7224 0.0 0.0 0
M  V30 8 N 13.8564 -0.5 0.0 0
M  V30 9 C 12.9903 0.0 0.0 0
M  V30 10 N 12.1243 -0.5 0.0 0
M  V30 11 N 12.9903 1.0 0.0 0
M  V30 12 C 11.2583 0.0 0.0 0
M  V30 13 N 10.3923 -0.5 0.0 0
M  V30 14 N 11.2583 1.0 0.0 0
M  V30 15 C 9.5262 0.0 0.0 0
M  V30 16 C 8.6602 -0.5 0.0 0
M  V30 17 C 7.7942 0.0 0.0 0
M  V30 18 C 6.9282 -0.5 0.0 0
M  V30 19 C 6.0621 0.0 0.0 0
M  V30 20 C 5.1961 -0.5 0.0 0
M  V30 21 N 4.3301 0.0 0.0 0
M  V30 22 C 3.4641 -0.5 0.0 0
M  V30 23 N 2.598 0.0 0.0 0
M  V30 24 N 3.4641 -1.5 0.0 0
M  V30 25 C 1.732 -0.5 0.0 0
M  V30 26 N 0.866 0.0 0.0 0
M  V30 27 N 1.732 -1.5 0.0 0
M  V30 28 C 0.0 -0.5 0.0 0
M  V30 29 C -0.866 0.0 0.0 0
M  V30 30 C 0.0 -1.4999 0.0 0
M  V30 31 C -1.732 -0.4999 0.0 0
M  V30 32 C -0.866 -1.9999 0.0 0
M  V30 33 C -1.732 -1.4999 0.0 0
M  V30 34 Cl -2.598 -1.9999 0.0 0
M  V30 END ATOM
M  V30 BEGIN BOND
M  V30 1 1 1 2
M  V30 2 2 2 3
M  V30 3 1 2 4
M  V30 4 1 3 5
M  V30 5 2 4 6
M  V30 6 2 5 7
M  V30 7 1 7 8
M  V30 8 1 8 9
M  V30 9 2 9 10
M  V30 10 1 9 11
M  V30 11 1 10 12
M  V30 12 2 12 13
M  V30 13 1 12 14
M  V30 14 1 13 15
M  V30 15 1 15 16
M  V30 16 1 16 17
M  V30 17 1 17 18
M  V30 18 1 18 19
M  V30 19 1 19 20
M  V30 20 1 20 21
M  V30 21 2 21 22
M  V30 22 1 22 23
M  V30 23 1 22 24
M  V30 24 2 23 25
M  V30 25 1 25 26
M  V30 26 1 25 27
M  V30 27 1 26 28
M  V30 28 2 28 29
M  V30 29 1 28 30
M  V30 30 1 29 31
M  V30 31 2 30 32
M  V30 32 2 31 33
M  V30 33 1 33 34
M  V30 34 1 6 7
M  V30 35 1 32 33
M  V30 END BOND
M  V30 END CTAB
M  END
>  <Molecule Name>


>  <status>
-

>  <cas>
55-56-1

>  <name>
CHLORHEXIDINE

>  <ID>
1233

>  <Smiles>
N/C(/Nc(cc1)ccc1Cl)=N\C(\N)=N\CCCCCC/N=C(\N)/N=C(\N)/Nc(cc1)ccc1Cl

$$$$
_c001
Actelion Java MolfileCreator 2.0

  0  0  0  0  0  0              0 V3000
M  V30 BEGIN CTAB
M  V30 COUNTS 74 77 0 0 0
M  V30 BEGIN ATOM
M  V30 1 S 12.8457 -6.4895 0.0 0
M  V30 2 S 12.5325 -7.963 0.0 0
M  V30 3 C 11.7263 -5.4815 0.0 0
M  V30 4 C 13.652 -8.9709 0.0 0
M  V30 5 C 10.2936 -5.947 0.0 0 CFG=2
M  V30 6 C 13.3388 -10.4444 0.0 0
M  V30 7 N 9.9804 -7.4205 0.0 0
M  V30 8 C 9.1741 -4.939 0.0 0
M  V30 9 C 14.6297 -11.5752 0.0 0
M  V30 10 C 8.5478 -7.886 0.0 0
M  V30 11 O 7.7415 -5.4045 0.0 0
M  V30 12 N 9.4873 -3.4656 0.0 0
M  V30 13 O 16.2287 -10.9341 0.0 0
M  V30 14 N 14.5217 -12.9258 0.0 0
M  V30 15 O 7.4283 -6.878 0.0 0
M  V30 16 C 8.2346 -9.3595 0.0 0 CFG=1
M  V30 17 C 8.4794 -2.3461 0.0 0 CFG=2
M  V30 18 C 10.8635 -2.8529 0.0 0
M  V30 19 C 15.3234 -14.1174 0.0 0 CFG=2
M  V30 20 N 9.1684 -10.2681 0.0 0
M  V30 21 C 6.8019 -9.825 0.0 0
M  V30 22 C 6.9812 -2.5036 0.0 0
M  V30 23 C 9.2326 -1.0415 0.0 0
M  V30 24 C 10.706 -1.3547 0.0 0
M  V30 25 C 14.9513 -15.4073 0.0 0
M  V30 26 C 16.7567 -13.6469 0.0 0
M  V30 27 C 9.0408 -11.8409 0.0 0
M  V30 28 C 5.6824 -8.817 0.0 0
M  V30 29 O 6.3685 -3.8797 0.0 0
M  V30 30 N 6.0958 -1.2849 0.0 0
M  V30 31 O 16.0708 -16.4152 0.0 0
M  V30 32 N 13.5187 -15.8728 0.0 0
M  V30 33 C 17.8167 -14.4763 0.0 0
M  V30 34 O 7.6082 -12.3064 0.0 0
M  V30 35 C 10.1603 -12.8489 0.0 0 CFG=1
M  V30 36 O 5.9956 -7.3435 0.0 0
M  V30 37 N 4.2498 -9.2825 0.0 0
M  V30 38 C 4.5977 -1.4423 0.0 0 CFG=1
M  V30 39 C 12.3992 -14.8648 0.0 0 CFG=2
M  V30 40 C 19.2493 -14.0108 0.0 0
M  V30 41 C 17.5035 -15.9497 0.0 0
M  V30 42 N 9.8471 -14.3223 0.0 0
M  V30 43 C 11.593 -12.3834 0.0 0
M  V30 44 C 3.985 -2.8185 0.0 0
M  V30 45 C 3.7122 -0.2236 0.0 0
M  V30 46 C 10.9666 -15.3303 0.0 0
M  V30 47 C 12.7124 -13.3913 0.0 0
M  V30 48 C 20.3688 -15.0187 0.0 0
M  V30 49 C 18.6229 -16.9577 0.0 0
M  V30 50 C 11.9062 -10.9099 0.0 0
M  V30 51 O 4.8704 -4.0372 0.0 0
M  V30 52 N 2.4868 -2.976 0.0 0
M  V30 53 C 4.3249 1.1524 0.0 0
M  V30 54 O 10.6534 -16.8038 0.0 0
M  V30 55 C 13.9568 -12.9258 0.0 0
M  V30 56 C 20.0556 -16.4922 0.0 0
M  V30 57 C 10.7867 -9.9019 0.0 0
M  V30 58 C 1.8741 -4.3521 0.0 0
M  V30 59 C 3.4395 2.3711 0.0 0
M  V30 60 C 14.1014 -11.5482 0.0 0
M  V30 61 C 15.1523 -13.5837 0.0 0
M  V30 62 O 21.1751 -17.5002 0.0 0
M  V30 63 O 9.6468 -10.5241 0.0 0
M  V30 64 N 11.0999 -8.4285 0.0 0
M  V30 65 C 0.376 -4.5096 0.0 0
M  V30 66 N 4.0522 3.7473 0.0 0
M  V30 67 C 15.7914 -10.6467 0.0 0
M  V30 68 C 16.5781 -13.111 0.0 0
M  V30 69 O -0.2366 -5.8857 0.0 0
M  V30 70 N -0.5093 -3.2909 0.0 0
M  V30 71 C 3.1668 4.9659 0.0 0
M  V30 72 C 17.0104 -11.9948 0.0 0
M  V30 73 N 1.6686 4.8085 0.0 0
M  V30 74 N 3.7795 6.3421 0.0 0
M  V30 END ATOM
M  V30 BEGIN BOND
M  V30 1 1 1 2
M  V30 2 1 1 3
M  V30 3 1 2 4
M  V30 4 1 5 3
M  V30 5 1 4 6
M  V30 6 1 5 7
M  V30 7 1 5 8 CFG=3
M  V30 8 1 6 9
M  V30 9 1 7 10
M  V30 10 2 8 11
M  V30 11 1 8 12
M  V30 12 2 9 13
M  V30 13 1 9 14
M  V30 14 2 10 15
M  V30 15 1 16 10
M  V30 16 1 17 12
M  V30 17 1 12 18
M  V30 18 1 19 14
M  V30 19 1 16 20
M  V30 20 1 16 21 CFG=1
M  V30 21 1 17 22 CFG=3
M  V30 22 1 17 23
M  V30 23 1 18 24
M  V30 24 1 19 25
M  V30 25 1 19 26 CFG=1
M  V30 26 1 20 27
M  V30 27 1 21 28
M  V30 28 2 22 29
M  V30 29 1 22 30
M  V30 30 2 25 31
M  V30 31 1 25 32
M  V30 32 1 26 33
M  V30 33 2 27 34
M  V30 34 1 35 27
M  V30 35 2 28 36
M  V30 36 1 28 37
M  V30 37 1 38 30 CFG=1
M  V30 38 1 39 32
M  V30 39 2 33 40
M  V30 40 1 33 41
M  V30 41 1 35 42
M  V30 42 1 35 43 CFG=3
M  V30 43 1 38 44
M  V30 44 1 38 45
M  V30 45 1 39 46
M  V30 46 1 39 47 CFG=3
M  V30 47 1 40 48
M  V30 48 2 41 49
M  V30 49 1 43 50
M  V30 50 2 44 51
M  V30 51 1 44 52
M  V30 52 1 45 53
M  V30 53 2 46 54
M  V30 54 1 47 55
M  V30 55 2 48 56
M  V30 56 1 50 57
M  V30 57 1 52 58
M  V30 58 1 53 59
M  V30 59 2 55 60
M  V30 60 1 55 61
M  V30 61 1 56 62
M  V30 62 2 57 63
M  V30 63 1 57 64
M  V30 64 1 58 65
M  V30 65 1 59 66
M  V30 66 1 60 67
M  V30 67 2 61 68
M  V30 68 2 65 69
M  V30 69 1 65 70
M  V30 70 2 66 71
M  V30 71 2 67 72
M  V30 72 1 71 73
M  V30 73 1 71 74
M  V30 74 1 23 24
M  V30 75 1 42 46
M  V30 76 1 49 56
M  V30 77 1 68 72
M  V30 END BOND
M  V30 BEGIN COLLECTION
M  V30 MDLV30/STERAC1 ATOMS=(7 5 16 17 19 35 38 39)
M  V30 END COLLECTION
M  V30 END CTAB
M  END
>  <Molecule Name>
_c001

>  <status>
-

>  <cas>
16679-58-6

>  <name>
DESMOPRESSIN

>  <ID>
1234

>  <Smiles>
NC(CC[C@@H](C(N[C@@H](CC(N)=O)C(N[C@@H](CSSCCC(N[C@@H](Cc(cc1)ccc1O)C(N[C@H]1Cc2ccccc2)=O)=O)C(N(CCC2)[C@@H]2C(N[C@H](CCCN=C(N)N)C(NCC(N)=O)=O)=O)=O)=O)=O)NC1=O)=O

$$$$

Actelion Java MolfileCreator 2.0

  0  0  0  0  0  0              0 V3000
M  V30 BEGIN CTAB
M  V30 COUNTS 94 98 0 0 0
M  V30 BEGIN ATOM
M  V30 1 S 25.9807 6.75 0.0 0
M  V30 2 O 25.2307 5.4509 0.0 0
M  V30 3 O 26.7307 8.049 0.0 0
M  V30 4 O 27.2798 6.0 0.0 0
M  V30 5 O 24.6817 7.5 0.0 0
M  V30 6 C 27.2798 4.5 0.0 0
M  V30 7 C 28.5788 3.75 0.0 0
M  V30 8 C 25.9807 3.75 0.0 0
M  V30 9 C 28.5788 2.25 0.0 0
M  V30 10 C 25.9807 2.25 0.0 0
M  V30 11 C 27.2798 1.5 0.0 0
M  V30 12 C 27.2798 0.0 0.0 0
M  V30 13 C 25.9807 -0.7499 0.0 0 CFG=2
M  V30 14 N 25.9807 -2.2499 0.0 0
M  V30 15 C 24.6817 0.0 0.0 0
M  V30 16 C 27.2798 -3.0 0.0 0
M  V30 17 O 24.6817 1.5 0.0 0
M  V30 18 N 23.3826 -0.75 0.0 0
M  V30 19 O 28.5788 -2.25 0.0 0
M  V30 20 C 27.2798 -4.4999 0.0 0 CFG=1
M  V30 21 C 22.0836 0.0 0.0 0 CFG=2
M  V30 22 N 25.9807 -5.25 0.0 0
M  V30 23 C 28.5788 -5.2499 0.0 0
M  V30 24 C 20.7846 -0.75 0.0 0
M  V30 25 C 22.0836 1.4999 0.0 0 CFG=2
M  V30 26 C 24.6817 -4.5 0.0 0
M  V30 27 C 28.5788 -6.75 0.0 0
M  V30 28 O 20.7846 -2.25 0.0 0
M  V30 29 N 19.4855 0.0 0.0 0
M  V30 30 O 23.3826 2.2499 0.0 0
M  V30 31 C 20.7846 2.25 0.0 0
M  V30 32 O 24.6817 -3.0 0.0 0
M  V30 33 C 23.3826 -5.25 0.0 0 CFG=1
M  V30 34 O 27.2798 -7.5 0.0 0
M  V30 35 O 29.8778 -7.5 0.0 0 CHG=-1
M  V30 36 C 18.1865 -0.75 0.0 0
M  V30 37 N 23.3826 -6.75 0.0 0
M  V30 38 C 22.0836 -4.5 0.0 0
M  V30 39 C 16.8874 0.0 0.0 0
M  V30 40 C 24.6817 -7.5 0.0 0
M  V30 41 C 20.7846 -5.25 0.0 0
M  V30 42 O 16.8874 1.5 0.0 0
M  V30 43 N 15.5884 -0.75 0.0 0
M  V30 44 O 25.9807 -6.75 0.0 0
M  V30 45 C 24.6817 -9.0 0.0 0 CFG=1
M  V30 46 C 19.4855 -4.5 0.0 0
M  V30 47 C 14.2894 0.0 0.0 0 CFG=2
M  V30 48 N 25.8952 -9.8816 0.0 0
M  V30 49 C 23.4681 -9.8816 0.0 0
M  V30 50 O 18.1865 -5.25 0.0 0
M  V30 51 N 19.4855 -3.0 0.0 0
M  V30 52 C 12.9903 -0.75 0.0 0
M  V30 53 C 14.2894 1.5 0.0 0
M  V30 54 C 25.4317 -11.3082 0.0 0
M  V30 55 C 23.9317 -11.3082 0.0 0
M  V30 56 O 12.9903 -2.25 0.0 0
M  V30 57 N 11.6913 0.0 0.0 0
M  V30 58 C 12.9903 2.25 0.0 0
M  V30 59 O 26.3134 -12.5217 0.0 0
M  V30 60 C 10.3923 -0.75 0.0 0 CFG=2
M  V30 61 C 12.8335 3.7417 0.0 0
M  V30 62 C 11.62 1.6398 0.0 0
M  V30 63 C 9.0932 0.0 0.0 0
M  V30 64 C 10.3923 -2.25 0.0 0
M  V30 65 C 11.3663 4.0536 0.0 0
M  V30 66 C 13.8372 4.8565 0.0 0
M  V30 67 N 10.6163 2.7546 0.0 0
M  V30 68 O 9.0932 1.4999 0.0 0
M  V30 69 N 7.7942 -0.75 0.0 0
M  V30 70 C 11.6913 -3.0 0.0 0
M  V30 71 C 10.9028 5.4802 0.0 0
M  V30 72 C 13.3737 6.283 0.0 0
M  V30 73 C 6.4951 0.0 0.0 0 CFG=2
M  V30 74 S 11.6913 -4.5 0.0 0
M  V30 75 C 11.9065 6.5949 0.0 0
M  V30 76 C 6.4951 1.5 0.0 0
M  V30 77 C 5.1961 -0.75 0.0 0
M  V30 78 C 12.9903 -5.25 0.0 0
M  V30 79 O 7.7942 2.25 0.0 0
M  V30 80 N 5.1961 2.25 0.0 0
M  V30 81 C 5.1961 -2.25 0.0 0
M  V30 82 C 5.1961 3.75 0.0 0 CFG=2
M  V30 83 O 6.4951 -2.9999 0.0 0
M  V30 84 O 3.8971 -3.0 0.0 0 CHG=-1
M  V30 85 C 6.4951 4.5 0.0 0
M  V30 86 C 3.8971 4.5 0.0 0
M  V30 87 O 6.4951 6.0 0.0 0
M  V30 88 N 7.7942 3.75 0.0 0
M  V30 89 C 3.8971 6.0 0.0 0
M  V30 90 C 2.598 6.75 0.0 0
M  V30 91 C 5.1961 6.75 0.0 0
M  V30 92 C 2.598 8.25 0.0 0
M  V30 93 C 5.1961 8.25 0.0 0
M  V30 94 C 3.8971 9.0 0.0 0
M  V30 END ATOM
M  V30 BEGIN BOND
M  V30 1 2 1 2
M  V30 2 2 1 3
M  V30 3 1 1 4
M  V30 4 1 1 5
M  V30 5 1 4 6
M  V30 6 2 6 7
M  V30 7 1 6 8
M  V30 8 1 7 9
M  V30 9 2 8 10
M  V30 10 2 9 11
M  V30 11 1 11 12
M  V30 12 1 13 12
M  V30 13 1 13 14 CFG=3
M  V30 14 1 13 15
M  V30 15 1 14 16
M  V30 16 2 15 17
M  V30 17 1 15 18
M  V30 18 2 16 19
M  V30 19 1 20 16
M  V30 20 1 21 18 CFG=3
M  V30 21 1 20 22 CFG=3
M  V30 22 1 20 23
M  V30 23 1 21 24
M  V30 24 1 25 21
M  V30 25 1 22 26
M  V30 26 1 23 27
M  V30 27 2 24 28
M  V30 28 1 24 29
M  V30 29 1 25 30 CFG=1
M  V30 30 1 25 31
M  V30 31 2 26 32
M  V30 32 1 33 26
M  V30 33 2 27 34
M  V30 34 1 27 35
M  V30 35 1 29 36
M  V30 36 1 33 37 CFG=1
M  V30 37 1 33 38
M  V30 38 1 36 39
M  V30 39 1 37 40
M  V30 40 1 38 41
M  V30 41 2 39 42
M  V30 42 1 39 43
M  V30 43 2 40 44
M  V30 44 1 45 40 CFG=1
M  V30 45 1 41 46
M  V30 46 1 47 43 CFG=3
M  V30 47 1 45 48
M  V30 48 1 45 49
M  V30 49 2 46 50
M  V30 50 1 46 51
M  V30 51 1 47 52
M  V30 52 1 47 53
M  V30 53 1 48 54
M  V30 54 1 49 55
M  V30 55 2 52 56
M  V30 56 1 52 57
M  V30 57 1 53 58
M  V30 58 2 54 59
M  V30 59 1 60 57 CFG=1
M  V30 60 1 58 61
M  V30 61 2 58 62
M  V30 62 1 60 63
M  V30 63 1 60 64
M  V30 64 2 61 65
M  V30 65 1 61 66
M  V30 66 1 62 67
M  V30 67 2 63 68
M  V30 68 1 63 69
M  V30 69 1 64 70
M  V30 70 1 65 71
M  V30 71 2 66 72
M  V30 72 1 73 69 CFG=1
M  V30 73 1 70 74
M  V30 74 2 71 75
M  V30 75 1 73 76
M  V30 76 1 73 77
M  V30 77 1 74 78
M  V30 78 2 76 79
M  V30 79 1 76 80
M  V30 80 1 77 81
M  V30 81 1 82 80 CFG=1
M  V30 82 2 81 83
M  V30 83 1 81 84
M  V30 84 1 82 85
M  V30 85 1 82 86
M  V30 86 2 85 87
M  V30 87 1 85 88
M  V30 88 1 86 89
M  V30 89 2 89 90
M  V30 90 1 89 91
M  V30 91 1 90 92
M  V30 92 2 91 93
M  V30 93 2 92 94
M  V30 94 1 10 11
M  V30 95 1 54 55
M  V30 96 1 65 67
M  V30 97 1 72 75
M  V30 98 1 93 94
M  V30 END BOND
M  V30 BEGIN COLLECTION
M  V30 MDLV30/STERAC1 ATOMS=(10 13 20 21 25 33 45 47 60 73 82)
M  V30 END COLLECTION
M  V30 END CTAB
M  END
>  <Molecule Name>


>  <status>
DISCONTINUED

>  <cas>
17650-98-5

>  <name>
CERULETIDE

>  <ID>
1235

>  <Smiles>
C[C@H]([C@@H](C(NCC(N[C@@H](Cc1c[nH]c2c1cccc2)C(N[C@@H](CCSC)C(N[C@@H](CC([O-])=O)C(N[C@@H](Cc1ccccc1)C(N)=O)=O)=O)=O)=O)=O)NC([C@H](Cc(cc1)ccc1OS(O)(=O)=O)NC([C@H](CC([O-])=O)NC([C@H](CCC(N)=O)NC([C@H](CC1)NC1=O)=O)=O)=O)=O)O

$$$$

Actelion Java MolfileCreator 2.0

  0  0  0  0  0  0              0 V3000
M  V30 BEGIN CTAB
M  V30 COUNTS 21 25 0 0 0
M  V30 BEGIN ATOM
M  V30 1 O 0.1904 1.7902 0.0 0
M  V30 2 C 0.8422 1.0319 0.0 0
M  V30 3 C 0.7102 2.6445 0.0 0 CFG=2
M  V30 4 C 0.866 0.0 0.0 0
M  V30 5 C 1.7649 1.4175 0.0 0
M  V30 6 C 1.6833 2.4141 0.0 0 CFG=2
M  V30 7 C 0.5658 3.6665 0.0 0 CFG=1
M  V30 8 O 0.0 -0.5 0.0 0
M  V30 9 C 1.7203 -0.5198 0.0 0
M  V30 10 C 2.6688 0.9898 0.0 0
M  V30 11 C 2.5056 2.9831 0.0 0 CFG=1
M  V30 12 C 1.5595 3.709 0.0 0
M  V30 13 O -0.3699 4.019 0.0 0
M  V30 14 C 1.3241 4.3184 0.0 0
M  V30 15 C 2.5976 -0.0398 0.0 0
M  V30 16 C 3.4912 1.5588 0.0 0
M  V30 17 C 2.2975 3.8895 0.0 0
M  V30 18 C 3.4096 2.5555 0.0 0 CFG=1
M  V30 19 C 2.4044 4.3441 0.0 0
M  V30 20 N 3.3007 3.8843 0.0 0
M  V30 21 C 4.1231 4.4533 0.0 0
M  V30 END ATOM
M  V30 BEGIN BOND
M  V30 1 1 1 2
M  V30 2 1 3 1 CFG=1
M  V30 3 2 2 4
M  V30 4 1 2 5
M  V30 5 1 6 3
M  V30 6 1 7 3
M  V30 7 1 4 8
M  V30 8 1 4 9
M  V30 9 2 5 10
M  V30 10 1 11 6
M  V30 11 1 6 12 CFG=3
M  V30 12 1 7 13 CFG=1
M  V30 13 1 7 14
M  V30 14 2 9 15
M  V30 15 1 10 16
M  V30 16 1 11 17 CFG=1
M  V30 17 1 18 11
M  V30 18 1 12 19
M  V30 19 1 18 20 CFG=3
M  V30 20 1 20 21
M  V30 21 1 5 6
M  V30 22 1 10 15
M  V30 23 2 14 17
M  V30 24 1 16 18
M  V30 25 1 19 20
M  V30 END BOND
M  V30 BEGIN COLLECTION
M  V30 MDLV30/STERAC1 ATOMS=(5 3 6 7 11 18)
M  V30 END COLLECTION
M  V30 END CTAB
M  END
>  <Molecule Name>


>  <status>
-

>  <cas>
57-27-2

>  <name>
MORPHINE

>  <ID>
1236

>  <Smiles>
CN(CC[C@]12c3c(C4)ccc(O)c3O[C@H]22)[C@H]4[C@@H]1C=C[C@@H]2O

$$$$

Actelion Java MolfileCreator 2.0

  0  0  0  0  0  0              0 V3000
M  V30 BEGIN CTAB
M  V30 COUNTS 12 13 0 0 0
M  V30 BEGIN ATOM
M  V30 1 N 1.732 1.4999 0.0 0
M  V30 2 C 0.866 1.0 0.0 0
M  V30 3 C 2.598 0.9999 0.0 0
M  V30 4 C 0.866 0.0 0.0 0
M  V30 5 C 2.598 0.0 0.0 0
M  V30 6 C 1.732 -0.5 0.0 0
M  V30 7 C 0.0 -0.5 0.0 0 CFG=1
M  V30 8 N -0.9135 -0.0932 0.0 0
M  V30 9 C -0.1045 -1.4945 0.0 0
M  V30 10 C -1.5826 -0.8364 0.0 0
M  V30 11 C -1.1214 0.8848 0.0 0
M  V30 12 C -1.0826 -1.7024 0.0 0
M  V30 END ATOM
M  V30 BEGIN BOND
M  V30 1 2 1 2
M  V30 2 1 1 3
M  V30 3 1 2 4
M  V30 4 2 3 5
M  V30 5 2 4 6
M  V30 6 1 7 4 CFG=3
M  V30 7 1 7 8
M  V30 8 1 7 9
M  V30 9 1 8 10
M  V30 10 1 8 11
M  V30 11 1 9 12
M  V30 12 1 5 6
M  V30 13 1 10 12
M  V30 END BOND
M  V30 BEGIN COLLECTION
M  V30 MDLV30/STERAC1 ATOMS=(1 7)
M  V30 END COLLECTION
M  V30 END CTAB
M  END
>  <Molecule Name>


>  <status>
-

>  <cas>
54-11-5

>  <name>
NICOTINE

>  <ID>
1237

>  <Smiles>
CN(CCC1)C1c1cccnc1

$$$$

Actelion Java MolfileCreator 2.0

  0  0  0  0  0  0              0 V3000
M  V30 BEGIN CTAB
M  V30 COUNTS 34 36 0 0 0
M  V30 BEGIN ATOM
M  V30 1 O 3.4641 -4.4999 0.0 0
M  V30 2 C 3.4641 -3.4999 0.0 0
M  V30 3 O 4.3301 -2.9999 0.0 0
M  V30 4 C 2.598 -2.9999 0.0 0
M  V30 5 C 4.3301 -1.9999 0.0 0
M  V30 6 C 2.598 -1.9999 0.0 0
M  V30 7 C 1.732 -3.4999 0.0 0
M  V30 8 C 5.1961 -1.5 0.0 0
M  V30 9 C 3.4641 -1.5 0.0 0
M  V30 10 C 1.732 -1.4999 0.0 0
M  V30 11 C 0.866 -2.9999 0.0 0
M  V30 12 O 6.0621 -2.0 0.0 0
M  V30 13 C 5.1961 -0.5 0.0 0
M  V30 14 C 3.4641 -0.5 0.0 0
M  V30 15 C 0.866 -1.9999 0.0 0
M  V30 16 C 6.0621 -3.0 0.0 0
M  V30 17 C 4.3301 0.0 0.0 0
M  V30 18 C 2.598 0.0 0.0 0 CFG=1
M  V30 19 C 0.0 -1.4999 0.0 0
M  V30 20 O 5.1961 -3.5 0.0 0
M  V30 21 C 6.9282 -3.5 0.0 0
M  V30 22 O 1.732 -0.5 0.0 0
M  V30 23 C 2.598 0.9999 0.0 0
M  V30 24 C 6.9282 -4.5 0.0 0
M  V30 25 C 7.7942 -3.0 0.0 0
M  V30 26 N 1.732 1.4999 0.0 0
M  V30 27 C 7.7942 -5.0 0.0 0
M  V30 28 C 8.6602 -3.5 0.0 0
M  V30 29 C 1.732 2.4999 0.0 0
M  V30 30 C 8.6602 -4.5 0.0 0
M  V30 31 C 2.732 2.5 0.0 0
M  V30 32 C 1.732 3.4999 0.0 0
M  V30 33 C 0.732 2.4999 0.0 0
M  V30 34 C 9.5262 -5.0 0.0 0
M  V30 END ATOM
M  V30 BEGIN BOND
M  V30 1 2 1 2
M  V30 2 1 2 3
M  V30 3 1 2 4
M  V30 4 1 3 5
M  V30 5 2 4 6
M  V30 6 1 4 7
M  V30 7 2 5 8
M  V30 8 1 5 9
M  V30 9 1 6 10
M  V30 10 2 7 11
M  V30 11 1 8 12
M  V30 12 1 8 13
M  V30 13 2 9 14
M  V30 14 2 10 15
M  V30 15 1 12 16
M  V30 16 2 13 17
M  V30 17 1 18 14
M  V30 18 1 15 19
M  V30 19 2 16 20
M  V30 20 1 16 21
M  V30 21 1 18 22 CFG=1
M  V30 22 1 18 23
M  V30 23 2 21 24
M  V30 24 1 21 25
M  V30 25 1 23 26
M  V30 26 1 24 27
M  V30 27 2 25 28
M  V30 28 1 26 29
M  V30 29 2 27 30
M  V30 30 1 29 31
M  V30 31 1 29 32
M  V30 32 1 29 33
M  V30 33 1 30 34
M  V30 34 1 11 15
M  V30 35 1 14 17
M  V30 36 1 28 30
M  V30 END BOND
M  V30 BEGIN COLLECTION
M  V30 MDLV30/STERAC1 ATOMS=(1 18)
M  V30 END COLLECTION
M  V30 END CTAB
M  END
>  <Molecule Name>


>  <status>
DISCONTINUED

>  <cas>
30392-40-6

>  <name>
BITOLTEROL

>  <ID>
1238

>  <Smiles>
CC(C)(C)NCC(c(cc1)cc(OC(c2ccc(C)cc2)=O)c1OC(c1ccc(C)cc1)=O)O

$$$$

Actelion Java MolfileCreator 2.0

  0  0  0  0  0  0              0 V3000
M  V30 BEGIN CTAB
M  V30 COUNTS 34 36 0 0 0
M  V30 BEGIN ATOM
M  V30 1 O 3.4641 -4.4999 0.0 0
M  V30 2 C 3.4641 -3.4999 0.0 0
M  V30 3 O 4.3301 -2.9999 0.0 0
M  V30 4 C 2.598 -2.9999 0.0 0
M  V30 5 C 4.3301 -1.9999 0.0 0
M  V30 6 C 2.598 -1.9999 0.0 0
M  V30 7 C 1.732 -3.4999 0.0 0
M  V30 8 C 5.1961 -1.5 0.0 0
M  V30 9 C 3.4641 -1.5 0.0 0
M  V30 10 C 1.732 -1.4999 0.0 0
M  V30 11 C 0.866 -2.9999 0.0 0
M  V30 12 O 6.0621 -2.0 0.0 0
M  V30 13 C 5.1961 -0.5 0.0 0
M  V30 14 C 3.4641 -0.5 0.0 0
M  V30 15 C 0.866 -1.9999 0.0 0
M  V30 16 C 6.0621 -3.0 0.0 0
M  V30 17 C 4.3301 0.0 0.0 0
M  V30 18 C 2.598 0.0 0.0 0 CFG=1
M  V30 19 C 0.0 -1.4999 0.0 0
M  V30 20 O 5.1961 -3.5 0.0 0
M  V30 21 C 6.9282 -3.5 0.0 0
M  V30 22 O 1.732 -0.5 0.0 0
M  V30 23 C 2.598 0.9999 0.0 0
M  V30 24 C 6.9282 -4.5 0.0 0
M  V30 25 C 7.7942 -3.0 0.0 0
M  V30 26 N 1.732 1.4999 0.0 0
M  V30 27 C 7.7942 -5.0 0.0 0
M  V30 28 C 8.6602 -3.5 0.0 0
M  V30 29 C 1.732 2.4999 0.0 0
M  V30 30 C 8.6602 -4.5 0.0 0
M  V30 31 C 2.732 2.5 0.0 0
M  V30 32 C 1.732 3.4999 0.0 0
M  V30 33 C 0.732 2.4999 0.0 0
M  V30 34 C 9.5262 -5.0 0.0 0
M  V30 END ATOM
M  V30 BEGIN BOND
M  V30 1 2 1 2
M  V30 2 1 2 3
M  V30 3 1 2 4
M  V30 4 1 3 5
M  V30 5 2 4 6
M  V30 6 1 4 7
M  V30 7 2 5 8
M  V30 8 1 5 9
M  V30 9 1 6 10
M  V30 10 2 7 11
M  V30 11 1 8 12
M  V30 12 1 8 13
M  V30 13 2 9 14
M  V30 14 2 10 15
M  V30 15 1 12 16
M  V30 16 2 13 17
M  V30 17 1 18 14
M  V30 18 1 15 19
M  V30 19 2 16 20
M  V30 20 1 16 21
M  V30 21 1 18 22 CFG=1
M  V30 22 1 18 23
M  V30 23 2 21 24
M  V30 24 1 21 25
M  V30 25 1 23 26
M  V30 26 1 24 27
M  V30 27 2 25 28
M  V30 28 1 26 29
M  V30 29 2 27 30
M  V30 30 1 29 31
M  V30 31 1 29 32
M  V30 32 1 29 33
M  V30 33 1 30 34
M  V30 34 1 11 15
M  V30 35 1 14 17
M  V30 36 1 28 30
M  V30 END BOND
M  V30 BEGIN COLLECTION
M  V30 MDLV30/STERAC1 ATOMS=(1 18)
M  V30 END COLLECTION
M  V30 END CTAB
M  END
>  <Molecule Name>


>  <status>
DISCONTINUED

>  <cas>
30392-40-6

>  <name>
BITOLTEROL

>  <ID>
1239

>  <Smiles>
CC(C)(C)NCC(c(cc1)cc(OC(c2ccc(C)cc2)=O)c1OC(c1ccc(C)cc1)=O)O

$$$$

Actelion Java MolfileCreator 2.0

  0  0  0  0  0  0              0 V3000
M  V30 BEGIN CTAB
M  V30 COUNTS 21 22 0 0 0
M  V30 BEGIN ATOM
M  V30 1 O 4.3301 0.0 0.0 0
M  V30 2 C 5.1961 -0.5 0.0 0
M  V30 3 C 3.4641 -0.5 0.0 0
M  V30 4 C 5.1961 -1.5 0.0 0
M  V30 5 C 6.0621 0.0 0.0 0
M  V30 6 C 2.598 0.0 0.0 0 CFG=1
M  V30 7 C 6.0621 -2.0 0.0 0
M  V30 8 C 4.3301 -1.9999 0.0 0
M  V30 9 C 6.9282 -0.5 0.0 0
M  V30 10 O 2.598 1.0 0.0 0
M  V30 11 C 1.732 -0.5 0.0 0
M  V30 12 C 6.9282 -1.5 0.0 0
M  V30 13 C 3.4165 -1.5932 0.0 0
M  V30 14 C 4.2255 -2.9945 0.0 0
M  V30 15 N 0.866 0.0 0.0 0
M  V30 16 C 2.7474 -2.3364 0.0 0
M  V30 17 C 3.2474 -3.2024 0.0 0
M  V30 18 C 0.0 -0.5 0.0 0
M  V30 19 C 0.4999 -1.366 0.0 0
M  V30 20 C -0.866 -0.9999 0.0 0
M  V30 21 C -0.4999 0.366 0.0 0
M  V30 END ATOM
M  V30 BEGIN BOND
M  V30 1 1 1 2
M  V30 2 1 1 3
M  V30 3 2 2 4
M  V30 4 1 2 5
M  V30 5 1 6 3
M  V30 6 1 4 7
M  V30 7 1 4 8
M  V30 8 2 5 9
M  V30 9 1 6 10 CFG=3
M  V30 10 1 6 11
M  V30 11 2 7 12
M  V30 12 1 8 13
M  V30 13 1 8 14
M  V30 14 1 11 15
M  V30 15 1 13 16
M  V30 16 1 14 17
M  V30 17 1 15 18
M  V30 18 1 18 19
M  V30 19 1 18 20
M  V30 20 1 18 21
M  V30 21 1 9 12
M  V30 22 1 16 17
M  V30 END BOND
M  V30 BEGIN COLLECTION
M  V30 MDLV30/STERAC1 ATOMS=(1 6)
M  V30 END COLLECTION
M  V30 END CTAB
M  END
>  <Molecule Name>


>  <status>
DISCONTINUED

>  <cas>
38363-40-5

>  <name>
PENBUTOLOL

>  <ID>
1240

>  <Smiles>
CC(C)(C)NCC(COc1c(C2CCCC2)cccc1)O

$$$$

Actelion Java MolfileCreator 2.0

  0  0  0  0  0  0              0 V3000
M  V30 BEGIN CTAB
M  V30 COUNTS 17 17 0 0 0
M  V30 BEGIN ATOM
M  V30 1 O 6.0621 -1.9999 0.0 0
M  V30 2 C 5.1961 -1.4999 0.0 0
M  V30 3 C 5.1961 -0.5 0.0 0
M  V30 4 C 4.3301 -1.9999 0.0 0
M  V30 5 N 4.3301 0.0 0.0 0
M  V30 6 C 6.0621 0.0 0.0 0
M  V30 7 C 3.4641 -1.5 0.0 0
M  V30 8 C 3.4641 -0.5 0.0 0
M  V30 9 O 6.0621 0.9999 0.0 0
M  V30 10 C 2.598 0.0 0.0 0 CFG=1
M  V30 11 O 2.598 1.0 0.0 0
M  V30 12 C 1.732 -0.5 0.0 0
M  V30 13 N 0.866 0.0 0.0 0
M  V30 14 C 0.0 -0.5 0.0 0
M  V30 15 C 0.4999 -1.366 0.0 0
M  V30 16 C -0.866 -0.9999 0.0 0
M  V30 17 C -0.4999 0.366 0.0 0
M  V30 END ATOM
M  V30 BEGIN BOND
M  V30 1 1 1 2
M  V30 2 2 2 3
M  V30 3 1 2 4
M  V30 4 1 3 5
M  V30 5 1 3 6
M  V30 6 2 4 7
M  V30 7 2 5 8
M  V30 8 1 6 9
M  V30 9 1 10 8
M  V30 10 1 10 11 CFG=3
M  V30 11 1 10 12
M  V30 12 1 12 13
M  V30 13 1 13 14
M  V30 14 1 14 15
M  V30 15 1 14 16
M  V30 16 1 14 17
M  V30 17 1 7 8
M  V30 END BOND
M  V30 BEGIN COLLECTION
M  V30 MDLV30/STERAC1 ATOMS=(1 10)
M  V30 END COLLECTION
M  V30 END CTAB
M  END
>  <Molecule Name>


>  <status>
DISCONTINUED

>  <cas>
38677-81-5

>  <name>
PIRBUTEROL

>  <ID>
1241

>  <Smiles>
CC(C)(C)NCC(c(cc1)nc(CO)c1O)O

$$$$

Actelion Java MolfileCreator 2.0

  0  0  0  0  0  0              0 V3000
M  V30 BEGIN CTAB
M  V30 COUNTS 17 17 0 0 0
M  V30 BEGIN ATOM
M  V30 1 O 6.0621 -1.9999 0.0 0
M  V30 2 C 5.1961 -1.4999 0.0 0
M  V30 3 C 5.1961 -0.5 0.0 0
M  V30 4 C 4.3301 -1.9999 0.0 0
M  V30 5 N 4.3301 0.0 0.0 0
M  V30 6 C 6.0621 0.0 0.0 0
M  V30 7 C 3.4641 -1.5 0.0 0
M  V30 8 C 3.4641 -0.5 0.0 0
M  V30 9 O 6.0621 0.9999 0.0 0
M  V30 10 C 2.598 0.0 0.0 0 CFG=1
M  V30 11 O 2.598 1.0 0.0 0
M  V30 12 C 1.732 -0.5 0.0 0
M  V30 13 N 0.866 0.0 0.0 0
M  V30 14 C 0.0 -0.5 0.0 0
M  V30 15 C 0.4999 -1.366 0.0 0
M  V30 16 C -0.866 -0.9999 0.0 0
M  V30 17 C -0.4999 0.366 0.0 0
M  V30 END ATOM
M  V30 BEGIN BOND
M  V30 1 1 1 2
M  V30 2 2 2 3
M  V30 3 1 2 4
M  V30 4 1 3 5
M  V30 5 1 3 6
M  V30 6 2 4 7
M  V30 7 2 5 8
M  V30 8 1 6 9
M  V30 9 1 10 8
M  V30 10 1 10 11 CFG=3
M  V30 11 1 10 12
M  V30 12 1 12 13
M  V30 13 1 13 14
M  V30 14 1 14 15
M  V30 15 1 14 16
M  V30 16 1 14 17
M  V30 17 1 7 8
M  V30 END BOND
M  V30 BEGIN COLLECTION
M  V30 MDLV30/STERAC1 ATOMS=(1 10)
M  V30 END COLLECTION
M  V30 END CTAB
M  END
>  <Molecule Name>


>  <status>
DISCONTINUED

>  <cas>
38677-81-5

>  <name>
PIRBUTEROL

>  <ID>
1242

>  <Smiles>
CC(C)(C)NCC(c(cc1)nc(CO)c1O)O

$$$$

Actelion Java MolfileCreator 2.0

  0  0  0  0  0  0              0 V3000
M  V30 BEGIN CTAB
M  V30 COUNTS 27 29 0 0 0
M  V30 BEGIN ATOM
M  V30 1 S 10.549 5.2417 0.0 0
M  V30 2 C 10.3923 3.7499 0.0 0
M  V30 3 C 12.0163 5.5536 0.0 0
M  V30 4 C 11.7626 3.1398 0.0 0
M  V30 5 C 9.0932 3.0 0.0 0
M  V30 6 C 12.7663 4.2546 0.0 0
M  V30 7 C 7.7942 3.75 0.0 0
M  V30 8 N 6.4951 3.0 0.0 0
M  V30 9 C 5.1961 3.75 0.0 0
M  V30 10 C 6.4951 1.5 0.0 0
M  V30 11 C 3.8971 3.0 0.0 0
M  V30 12 C 5.1961 0.75 0.0 0
M  V30 13 C 3.8971 1.5 0.0 0
M  V30 14 N 3.8971 0.0 0.0 0
M  V30 15 C 2.598 0.75 0.0 0
M  V30 16 C 5.1961 -0.75 0.0 0
M  V30 17 C 2.598 -0.75 0.0 0
M  V30 18 O 1.299 1.4999 0.0 0
M  V30 19 C 5.1961 -2.25 0.0 0
M  V30 20 C 6.4951 0.0 0.0 0
M  V30 21 O 2.598 -2.25 0.0 0
M  V30 22 C 1.299 0.0 0.0 0
M  V30 23 C 0.0 0.7499 0.0 0
M  V30 24 C 6.4951 -3.0 0.0 0
M  V30 25 C 7.7942 -0.75 0.0 0
M  V30 26 C 0.0 -0.75 0.0 0
M  V30 27 C 7.7942 -2.25 0.0 0
M  V30 END ATOM
M  V30 BEGIN BOND
M  V30 1 1 1 2
M  V30 2 1 1 3
M  V30 3 2 2 4
M  V30 4 1 2 5
M  V30 5 2 3 6
M  V30 6 1 5 7
M  V30 7 1 7 8
M  V30 8 1 8 9
M  V30 9 1 8 10
M  V30 10 1 9 11
M  V30 11 1 10 12
M  V30 12 1 11 13
M  V30 13 1 13 14
M  V30 14 1 13 15
M  V30 15 1 14 16
M  V30 16 1 14 17
M  V30 17 1 15 18
M  V30 18 2 16 19
M  V30 19 1 16 20
M  V30 20 2 17 21
M  V30 21 1 17 22
M  V30 22 1 18 23
M  V30 23 1 19 24
M  V30 24 2 20 25
M  V30 25 1 22 26
M  V30 26 2 24 27
M  V30 27 1 4 6
M  V30 28 1 12 13
M  V30 29 1 25 27
M  V30 END BOND
M  V30 END CTAB
M  END
>  <Molecule Name>


>  <status>
-

>  <cas>
56030-54-7

>  <name>
SUFENTANIL

>  <ID>
1243

>  <Smiles>
CCC(N(C1(COC)CCN(CCc2cccs2)CC1)c1ccccc1)=O

$$$$

Actelion Java MolfileCreator 2.0

  0  0  0  0  0  0              0 V3000
M  V30 BEGIN CTAB
M  V30 COUNTS 25 27 0 0 0
M  V30 BEGIN ATOM
M  V30 1 Cl 3.4641 1.4999 0.0 0
M  V30 2 C 4.3301 1.0 0.0 0
M  V30 3 C 4.3301 0.0 0.0 0
M  V30 4 C 5.1961 1.5 0.0 0
M  V30 5 S 3.4641 -0.5 0.0 0
M  V30 6 C 5.1961 -0.4999 0.0 0
M  V30 7 C 6.0621 1.0 0.0 0
M  V30 8 C 2.598 0.0 0.0 0 CFG=2
M  V30 9 Cl 5.1961 -1.4999 0.0 0
M  V30 10 C 6.0621 0.0 0.0 0
M  V30 11 C 2.598 1.0 0.0 0
M  V30 12 C 1.732 -0.5 0.0 0
M  V30 13 N 1.732 1.5 0.0 0
M  V30 14 C 0.866 0.0 0.0 0
M  V30 15 C 1.6275 2.4945 0.0 0
M  V30 16 C 0.8185 1.0932 0.0 0
M  V30 17 C 0.0 -0.5 0.0 0
M  V30 18 N 0.6493 2.7024 0.0 0
M  V30 19 C 0.1493 1.8364 0.0 0
M  V30 20 C -0.866 0.0 0.0 0
M  V30 21 C 0.0 -1.4999 0.0 0
M  V30 22 C -1.732 -0.4999 0.0 0
M  V30 23 C -0.866 -1.9999 0.0 0
M  V30 24 C -1.732 -1.4999 0.0 0
M  V30 25 Cl -2.598 -1.9999 0.0 0
M  V30 END ATOM
M  V30 BEGIN BOND
M  V30 1 1 1 2
M  V30 2 2 2 3
M  V30 3 1 2 4
M  V30 4 1 3 5
M  V30 5 1 3 6
M  V30 6 2 4 7
M  V30 7 1 8 5 CFG=1
M  V30 8 1 6 9
M  V30 9 2 6 10
M  V30 10 1 8 11
M  V30 11 1 8 12
M  V30 12 1 11 13
M  V30 13 1 12 14
M  V30 14 1 13 15
M  V30 15 1 13 16
M  V30 16 1 14 17
M  V30 17 2 15 18
M  V30 18 2 16 19
M  V30 19 2 17 20
M  V30 20 1 17 21
M  V30 21 1 20 22
M  V30 22 2 21 23
M  V30 23 2 22 24
M  V30 24 1 24 25
M  V30 25 1 7 10
M  V30 26 1 18 19
M  V30 27 1 23 24
M  V30 END BOND
M  V30 BEGIN COLLECTION
M  V30 MDLV30/STERAC1 ATOMS=(1 8)
M  V30 END COLLECTION
M  V30 END CTAB
M  END
>  <Molecule Name>


>  <status>
-

>  <cas>
64872-76-0

>  <name>
BUTOCONAZOLE

>  <ID>
1244

>  <Smiles>
Clc1ccc(CCC(Cn2cncc2)Sc(c(Cl)ccc2)c2Cl)cc1

$$$$

Actelion Java MolfileCreator 2.0

  0  0  0  0  0  0              0 V3000
M  V30 BEGIN CTAB
M  V30 COUNTS 25 27 0 0 0
M  V30 BEGIN ATOM
M  V30 1 Cl 3.4641 1.4999 0.0 0
M  V30 2 C 4.3301 1.0 0.0 0
M  V30 3 C 4.3301 0.0 0.0 0
M  V30 4 C 5.1961 1.5 0.0 0
M  V30 5 S 3.4641 -0.5 0.0 0
M  V30 6 C 5.1961 -0.4999 0.0 0
M  V30 7 C 6.0621 1.0 0.0 0
M  V30 8 C 2.598 0.0 0.0 0 CFG=2
M  V30 9 Cl 5.1961 -1.4999 0.0 0
M  V30 10 C 6.0621 0.0 0.0 0
M  V30 11 C 2.598 1.0 0.0 0
M  V30 12 C 1.732 -0.5 0.0 0
M  V30 13 N 1.732 1.5 0.0 0
M  V30 14 C 0.866 0.0 0.0 0
M  V30 15 C 1.6275 2.4945 0.0 0
M  V30 16 C 0.8185 1.0932 0.0 0
M  V30 17 C 0.0 -0.5 0.0 0
M  V30 18 N 0.6493 2.7024 0.0 0
M  V30 19 C 0.1493 1.8364 0.0 0
M  V30 20 C -0.866 0.0 0.0 0
M  V30 21 C 0.0 -1.4999 0.0 0
M  V30 22 C -1.732 -0.4999 0.0 0
M  V30 23 C -0.866 -1.9999 0.0 0
M  V30 24 C -1.732 -1.4999 0.0 0
M  V30 25 Cl -2.598 -1.9999 0.0 0
M  V30 END ATOM
M  V30 BEGIN BOND
M  V30 1 1 1 2
M  V30 2 2 2 3
M  V30 3 1 2 4
M  V30 4 1 3 5
M  V30 5 1 3 6
M  V30 6 2 4 7
M  V30 7 1 8 5 CFG=1
M  V30 8 1 6 9
M  V30 9 2 6 10
M  V30 10 1 8 11
M  V30 11 1 8 12
M  V30 12 1 11 13
M  V30 13 1 12 14
M  V30 14 1 13 15
M  V30 15 1 13 16
M  V30 16 1 14 17
M  V30 17 2 15 18
M  V30 18 2 16 19
M  V30 19 2 17 20
M  V30 20 1 17 21
M  V30 21 1 20 22
M  V30 22 2 21 23
M  V30 23 2 22 24
M  V30 24 1 24 25
M  V30 25 1 7 10
M  V30 26 1 18 19
M  V30 27 1 23 24
M  V30 END BOND
M  V30 BEGIN COLLECTION
M  V30 MDLV30/STERAC1 ATOMS=(1 8)
M  V30 END COLLECTION
M  V30 END CTAB
M  END
>  <Molecule Name>


>  <status>
-

>  <cas>
64872-76-0

>  <name>
BUTOCONAZOLE

>  <ID>
1245

>  <Smiles>
Clc1ccc(CCC(Cn2cncc2)Sc(c(Cl)ccc2)c2Cl)cc1

$$$$

Actelion Java MolfileCreator 2.0

  0  0  0  0  0  0              0 V3000
M  V30 BEGIN CTAB
M  V30 COUNTS 25 26 0 0 0
M  V30 BEGIN ATOM
M  V30 1 O 6.0621 0.0 0.0 0
M  V30 2 C 6.9282 -0.5 0.0 0
M  V30 3 C 5.1961 -0.5 0.0 0
M  V30 4 C 6.9282 -1.5 0.0 0
M  V30 5 C 7.7942 0.0 0.0 0
M  V30 6 C 4.3301 0.0 0.0 0
M  V30 7 C 7.7942 -2.0 0.0 0
M  V30 8 C 8.6602 -0.5 0.0 0
M  V30 9 C 3.4641 -0.5 0.0 0
M  V30 10 C 8.6602 -1.4999 0.0 0
M  V30 11 C 2.598 0.0 0.0 0
M  V30 12 C 9.5262 -2.0 0.0 0
M  V30 13 C 1.732 -0.5 0.0 0
M  V30 14 N 9.5262 -3.0 0.0 0 CHG=1
M  V30 15 N 10.3923 -1.5 0.0 0
M  V30 16 O 0.866 0.0 0.0 0
M  V30 17 C 0.0 -0.5 0.0 0
M  V30 18 C -0.866 0.0 0.0 0
M  V30 19 C 0.0 -1.4999 0.0 0
M  V30 20 C -1.732 -0.4999 0.0 0
M  V30 21 C -0.866 -1.9999 0.0 0
M  V30 22 C -1.732 -1.4999 0.0 0
M  V30 23 C -2.598 -1.9999 0.0 0
M  V30 24 N -3.4641 -1.4999 0.0 0 CHG=1
M  V30 25 N -2.598 -2.9999 0.0 0
M  V30 END ATOM
M  V30 BEGIN BOND
M  V30 1 1 1 2
M  V30 2 1 1 3
M  V30 3 2 2 4
M  V30 4 1 2 5
M  V30 5 1 3 6
M  V30 6 1 4 7
M  V30 7 2 5 8
M  V30 8 1 6 9
M  V30 9 2 7 10
M  V30 10 1 9 11
M  V30 11 1 10 12
M  V30 12 1 11 13
M  V30 13 2 12 14
M  V30 14 1 12 15
M  V30 15 1 13 16
M  V30 16 1 16 17
M  V30 17 2 17 18
M  V30 18 1 17 19
M  V30 19 1 18 20
M  V30 20 2 19 21
M  V30 21 2 20 22
M  V30 22 1 22 23
M  V30 23 2 23 24
M  V30 24 1 23 25
M  V30 25 1 8 10
M  V30 26 1 21 22
M  V30 END BOND
M  V30 END CTAB
M  END
>  <Molecule Name>


>  <status>
-

>  <cas>
100-33-4

>  <name>
PENTAMIDINE

>  <ID>
1246

>  <Smiles>
NC(c(cc1)ccc1OCCCCCOc(cc1)ccc1C(N)=[NH2+])=[NH2+]

$$$$

Actelion Java MolfileCreator 2.0

  0  0  0  0  0  0              0 V3000
M  V30 BEGIN CTAB
M  V30 COUNTS 16 17 0 0 0
M  V30 BEGIN ATOM
M  V30 1 O 1.299 0.0 0.0 0
M  V30 2 C 0.0 -0.75 0.0 0
M  V30 3 N -1.299 0.0 0.0 0
M  V30 4 C 0.0 -2.25 0.0 0
M  V30 5 C -2.598 -0.7499 0.0 0
M  V30 6 C 1.299 -3.0 0.0 0
M  V30 7 C -1.299 -2.9999 0.0 0
M  V30 8 C -2.598 -2.2499 0.0 0
M  V30 9 C -3.8971 0.0 0.0 0
M  V30 10 N 2.598 -3.75 0.0 0
M  V30 11 C -3.8971 -2.9999 0.0 0
M  V30 12 C -5.1961 -2.2499 0.0 0
M  V30 13 C -3.8971 -4.4999 0.0 0
M  V30 14 C -6.4951 -2.9999 0.0 0
M  V30 15 C -5.1961 -5.2499 0.0 0
M  V30 16 N -6.4951 -4.4999 0.0 0
M  V30 END ATOM
M  V30 BEGIN BOND
M  V30 1 2 1 2
M  V30 2 1 2 3
M  V30 3 1 2 4
M  V30 4 1 3 5
M  V30 5 1 4 6
M  V30 6 2 4 7
M  V30 7 2 5 8
M  V30 8 1 5 9
M  V30 9 3 6 10
M  V30 10 1 8 11
M  V30 11 2 11 12
M  V30 12 1 11 13
M  V30 13 1 12 14
M  V30 14 2 13 15
M  V30 15 2 14 16
M  V30 16 1 7 8
M  V30 17 1 15 16
M  V30 END BOND
M  V30 END CTAB
M  END
>  <Molecule Name>


>  <status>
-

>  <cas>
78415-72-2

>  <name>
MILRINONE

>  <ID>
1247

>  <Smiles>
CC(NC(C(C#N)=C1)=O)=C1c1ccncc1

$$$$

Actelion Java MolfileCreator 2.0

  0  0  0  0  0  0              0 V3000
M  V30 BEGIN CTAB
M  V30 COUNTS 43 48 0 0 0
M  V30 BEGIN ATOM
M  V30 1 O 8.7658 11.7897 0.0 0
M  V30 2 C 8.3022 10.3631 0.0 0
M  V30 3 O 6.835 10.0513 0.0 0
M  V30 4 C 9.3059 9.2484 0.0 0
M  V30 5 C 6.3715 8.6247 0.0 0 CFG=2
M  V30 6 C 4.9043 8.3128 0.0 0 CFG=1
M  V30 7 C 7.3752 7.51 0.0 0
M  V30 8 N 3.9006 9.4275 0.0 0
M  V30 9 C 4.4407 6.8862 0.0 0
M  V30 10 C 6.9117 6.0834 0.0 0 CFG=1
M  V30 11 C 4.3641 10.8541 0.0 0
M  V30 12 C 2.4334 9.1157 0.0 0
M  V30 13 C 5.4444 5.7715 0.0 0 CFG=1
M  V30 14 C 7.9154 4.9686 0.0 0
M  V30 15 C 3.3604 11.9688 0.0 0
M  V30 16 C 1.4297 10.2304 0.0 0
M  V30 17 C 4.9809 4.3449 0.0 0 CFG=2
M  V30 18 C 3.9772 5.4596 0.0 0
M  V30 19 C 7.4518 3.5421 0.0 0
M  V30 20 N 1.8932 11.657 0.0 0 CHG=1
M  V30 21 C 5.9846 3.2302 0.0 0 CFG=1
M  V30 22 C 3.5137 4.033 0.0 0
M  V30 23 C 1.5813 13.1242 0.0 0
M  V30 24 C 0.4666 12.1205 0.0 0
M  V30 25 C 5.5211 1.8036 0.0 0 CFG=1
M  V30 26 C 3.0502 2.6065 0.0 0
M  V30 27 C 4.0539 1.4917 0.0 0 CFG=2
M  V30 28 C 6.2711 0.5046 0.0 0
M  V30 29 C 3.8971 0.0 0.0 0 CFG=2
M  V30 30 C 2.6273 1.0282 0.0 0
M  V30 31 C 5.2674 -0.6101 0.0 0 CFG=1
M  V30 32 O 2.598 -0.75 0.0 0
M  V30 33 N 5.5793 -2.0773 0.0 0
M  V30 34 C 1.299 0.0 0.0 0
M  V30 35 C 4.4645 -3.081 0.0 0
M  V30 36 C 7.0058 -2.5408 0.0 0
M  V30 37 O 1.299 1.5 0.0 0
M  V30 38 C 0.0 -0.75 0.0 0
M  V30 39 C 4.7764 -4.5482 0.0 0
M  V30 40 C 7.3177 -4.008 0.0 0
M  V30 41 N 6.203 -5.0117 0.0 0 CHG=1
M  V30 42 C 5.7395 -6.4383 0.0 0
M  V30 43 C 7.2067 -6.1264 0.0 0
M  V30 END ATOM
M  V30 BEGIN BOND
M  V30 1 2 1 2
M  V30 2 1 2 3
M  V30 3 1 2 4
M  V30 4 1 5 3 CFG=1
M  V30 5 1 6 5
M  V30 6 1 5 7
M  V30 7 1 6 8 CFG=3
M  V30 8 1 6 9
M  V30 9 1 10 7 CFG=3
M  V30 10 1 8 11
M  V30 11 1 8 12
M  V30 12 1 13 9
M  V30 13 1 10 14
M  V30 14 1 11 15
M  V30 15 1 12 16
M  V30 16 1 17 13
M  V30 17 1 13 18 CFG=3
M  V30 18 1 14 19
M  V30 19 1 15 20
M  V30 20 1 21 17
M  V30 21 1 17 22 CFG=3
M  V30 22 1 20 23
M  V30 23 1 20 24
M  V30 24 1 25 21
M  V30 25 1 22 26
M  V30 26 1 27 25
M  V30 27 1 25 28 CFG=3
M  V30 28 1 29 27
M  V30 29 1 27 30 CFG=3
M  V30 30 1 31 28
M  V30 31 1 29 32 CFG=3
M  V30 32 1 31 33 CFG=3
M  V30 33 1 32 34
M  V30 34 1 33 35
M  V30 35 1 33 36
M  V30 36 2 34 37
M  V30 37 1 34 38
M  V30 38 1 35 39
M  V30 39 1 36 40
M  V30 40 1 39 41
M  V30 41 1 41 42
M  V30 42 1 41 43
M  V30 43 1 10 13
M  V30 44 1 16 20
M  V30 45 1 21 19 CFG=1
M  V30 46 1 26 27
M  V30 47 1 29 31
M  V30 48 1 40 41
M  V30 END BOND
M  V30 BEGIN COLLECTION
M  V30 MDLV30/STERAC1 ATOMS=(10 5 6 10 13 17 21 25 27 29 31)
M  V30 END COLLECTION
M  V30 END CTAB
M  END
>  <Molecule Name>


>  <status>
DISCONTINUED

>  <cas>
68399-58-6

>  <name>
PIPECURONIUM

>  <ID>
1248

>  <Smiles>
C[C@](CC1)([C@@H](C[C@@H]2N3CC[N+](C)(C)CC3)[C@H](CC3)[C@H]1[C@@](C)(C[C@@H]1N4CC[N+](C)(C)CC4)[C@@H]3C[C@@H]1OC(C)=O)[C@H]2OC(C)=O

$$$$
_c001
Actelion Java MolfileCreator 2.0

  0  0  0  0  0  0              0 V3000
M  V30 BEGIN CTAB
M  V30 COUNTS 71 75 0 0 0
M  V30 BEGIN ATOM
M  V30 1 S 7.8133 2.2555 0.0 0
M  V30 2 S 9.0902 1.5182 0.0 0
M  V30 3 C 6.5111 1.5036 0.0 0
M  V30 4 C 10.4939 2.338 0.0 0
M  V30 5 C 6.5111 0.0 0.0 0 CFG=2
M  V30 6 C 12.0003 1.4478 0.0 0 CFG=2
M  V30 7 N 5.2089 -0.7518 0.0 0
M  V30 8 C 7.8133 -0.7518 0.0 0
M  V30 9 N 13.14 2.3095 0.0 0
M  V30 10 C 11.9006 0.0756 0.0 0
M  V30 11 C 3.9066 0.0 0.0 0
M  V30 12 O 9.0496 -0.0865 0.0 0
M  V30 13 N 7.8133 -2.2555 0.0 0
M  V30 14 C 14.398 1.685 0.0 0
M  V30 15 O 13.3952 -0.7052 0.0 0
M  V30 16 N 10.4064 -0.8084 0.0 0
M  V30 17 O 3.9066 1.5036 0.0 0
M  V30 18 C 2.6044 -0.7518 0.0 0 CFG=2
M  V30 19 C 9.2751 -3.0999 0.0 0 CFG=2
M  V30 20 O 14.0557 0.2398 0.0 0
M  V30 21 C 15.6267 2.2555 0.0 0 CFG=1
M  V30 22 C 10.2484 -2.0725 0.0 0 CFG=1
M  V30 23 N 2.6044 -2.2555 0.0 0
M  V30 24 C 1.3022 0.0 0.0 0
M  V30 25 C 10.4848 -2.4509 0.0 0
M  V30 26 C 9.2392 -4.6592 0.0 0
M  V30 27 N 16.9289 1.5036 0.0 0
M  V30 28 C 15.6267 3.7592 0.0 0 CFG=2
M  V30 29 C 11.5361 -3.1241 0.0 0 CFG=2
M  V30 30 C 8.7775 -2.8506 0.0 0
M  V30 31 C 0.0 -0.7518 0.0 0
M  V30 32 O 10.6344 -0.9593 0.0 0
M  V30 33 N 12.023 -3.1315 0.0 0
M  V30 34 C 7.8133 -5.2628 0.0 0
M  V30 35 C 16.9289 0.0 0.0 0
M  V30 36 O 16.9289 4.511 0.0 0
M  V30 37 C 14.3244 4.511 0.0 0
M  V30 38 O 11.72 -4.511 0.0 0
M  V30 39 C 13.0222 -1.8796 0.0 0
M  V30 40 O 8.8811 -4.2301 0.0 0
M  V30 41 C -1.3022 0.0 0.0 0
M  V30 42 C 0.0 -2.2555 0.0 0
M  V30 43 C 13.171 -2.4332 0.0 0 CFG=1
M  V30 44 C 7.8133 -6.7665 0.0 0
M  V30 45 C 6.5111 -4.511 0.0 0
M  V30 46 O 18.2311 -0.7518 0.0 0
M  V30 47 C 15.6267 -0.7518 0.0 0 CFG=1
M  V30 48 C -2.6044 -0.7518 0.0 0
M  V30 49 C -1.3022 -3.0073 0.0 0
M  V30 50 C 14.3244 -3.0073 0.0 0
M  V30 51 C 12.9128 -1.0118 0.0 0
M  V30 52 C 6.5111 -7.5184 0.0 0
M  V30 53 C 5.2089 -5.2628 0.0 0
M  V30 54 N 15.6267 -2.2555 0.0 0
M  V30 55 C 14.4705 -0.1304 0.0 0
M  V30 56 C -2.6044 -2.2555 0.0 0
M  V30 57 O 14.3244 -4.511 0.0 0
M  V30 58 C 11.4875 0.0323 0.0 0
M  V30 59 C 5.2089 -6.7665 0.0 0
M  V30 60 C 14.2816 1.1353 0.0 0
M  V30 61 C 11.4111 1.4248 0.0 0
M  V30 62 C 10.2244 -0.3965 0.0 0
M  V30 63 C 12.9978 2.0611 0.0 0
M  V30 64 C 10.1415 1.6835 0.0 0
M  V30 65 C 12.4949 2.6555 0.0 0
M  V30 66 N 9.3604 0.5471 0.0 0
M  V30 67 C 13.0222 3.7592 0.0 0
M  V30 68 C 9.6273 3.2381 0.0 0
M  V30 69 C 11.9715 3.844 0.0 0
M  V30 70 N 11.7162 4.6307 0.0 0
M  V30 71 C 10.6335 4.3556 0.0 0
M  V30 END ATOM
M  V30 BEGIN BOND
M  V30 1 1 1 2
M  V30 2 1 1 3
M  V30 3 1 2 4
M  V30 4 1 5 3
M  V30 5 1 6 4
M  V30 6 1 5 7 CFG=1
M  V30 7 1 5 8
M  V30 8 1 6 9
M  V30 9 1 6 10 CFG=3
M  V30 10 1 7 11
M  V30 11 2 8 12
M  V30 12 1 8 13
M  V30 13 1 9 14
M  V30 14 2 10 15
M  V30 15 1 10 16
M  V30 16 2 11 17
M  V30 17 1 18 11
M  V30 18 1 19 13
M  V30 19 2 14 20
M  V30 20 1 21 14
M  V30 21 1 22 16 CFG=1
M  V30 22 1 18 23 CFG=3
M  V30 23 1 18 24
M  V30 24 1 19 25
M  V30 25 1 19 26 CFG=3
M  V30 26 1 21 27 CFG=3
M  V30 27 1 28 21
M  V30 28 1 29 22
M  V30 29 1 22 30
M  V30 30 1 24 31
M  V30 31 2 25 32
M  V30 32 1 25 33
M  V30 33 1 26 34
M  V30 34 1 27 35
M  V30 35 1 28 36 CFG=1
M  V30 36 1 28 37
M  V30 37 1 29 38 CFG=1
M  V30 38 1 29 39
M  V30 39 1 30 40
M  V30 40 2 31 41
M  V30 41 1 31 42
M  V30 42 1 43 33
M  V30 43 2 34 44
M  V30 44 1 34 45
M  V30 45 2 35 46
M  V30 46 1 47 35
M  V30 47 1 41 48
M  V30 48 2 42 49
M  V30 49 1 43 50
M  V30 50 1 43 51 CFG=3
M  V30 51 1 44 52
M  V30 52 2 45 53
M  V30 53 1 47 54
M  V30 54 1 47 55 CFG=1
M  V30 55 2 48 56
M  V30 56 2 50 57
M  V30 57 1 51 58
M  V30 58 2 52 59
M  V30 59 1 55 60
M  V30 60 1 58 61
M  V30 61 2 58 62
M  V30 62 1 60 63
M  V30 63 2 61 64
M  V30 64 1 61 65
M  V30 65 1 62 66
M  V30 66 1 63 67
M  V30 67 1 64 68
M  V30 68 2 65 69
M  V30 69 1 67 70
M  V30 70 2 68 71
M  V30 71 1 49 56
M  V30 72 1 50 54
M  V30 73 1 53 59
M  V30 74 1 64 66
M  V30 75 1 69 71
M  V30 END BOND
M  V30 BEGIN COLLECTION
M  V30 MDLV30/STERAC1 ATOMS=(10 5 6 18 19 21 22 28 29 43 47)
M  V30 END COLLECTION
M  V30 END CTAB
M  END
>  <Molecule Name>
_c001

>  <status>
-

>  <cas>
83150-76-9

>  <name>
OCTREOTIDE

>  <ID>
1249

>  <Smiles>
C[C@H]([C@@H](CO)NC([C@H](CSSC[C@@H](C(N[C@@H](Cc1ccccc1)C(N[C@H](Cc1c[nH]c2c1cccc2)C(N[C@@H](CCCCN)C(N[C@H]1[C@@H](C)O)=O)=O)=O)=O)NC([C@@H](Cc2ccccc2)N)=O)NC1=O)=O)O

$$$$

Actelion Java MolfileCreator 2.0

  0  0  0  0  0  0              0 V3000
M  V30 BEGIN CTAB
M  V30 COUNTS 33 37 0 0 0
M  V30 BEGIN ATOM
M  V30 1 O 1.732 -0.5 0.0 0
M  V30 2 C 0.866 0.0 0.0 0
M  V30 3 N 0.866 1.0 0.0 0
M  V30 4 C 0.0 -0.5 0.0 0 CFG=1
M  V30 5 C 1.732 1.4999 0.0 0
M  V30 6 C 0.0 1.4999 0.0 0
M  V30 7 O -0.866 0.0 0.0 0
M  V30 8 C 0.0 -1.4999 0.0 0
M  V30 9 C 1.732 2.5 0.0 0
M  V30 10 C 0.0 2.5 0.0 0
M  V30 11 C -1.732 -0.4999 0.0 0
M  V30 12 O -0.866 -1.9999 0.0 0
M  V30 13 N 0.866 3.0 0.0 0
M  V30 14 C -1.732 -1.4999 0.0 0
M  V30 15 C -2.598 0.0 0.0 0
M  V30 16 C 0.866 4.0 0.0 0
M  V30 17 C -2.598 -1.9999 0.0 0
M  V30 18 C -3.4641 -0.4999 0.0 0
M  V30 19 N 1.732 4.5 0.0 0
M  V30 20 N 0.0 4.4999 0.0 0
M  V30 21 C -3.4641 -1.4999 0.0 0
M  V30 22 C 1.732 5.5 0.0 0
M  V30 23 C 0.0 5.4999 0.0 0
M  V30 24 N 2.598 6.0 0.0 0
M  V30 25 C 0.866 6.0 0.0 0
M  V30 26 C -0.866 5.9999 0.0 0
M  V30 27 C 0.866 7.0 0.0 0
M  V30 28 C -0.866 6.9999 0.0 0
M  V30 29 C 0.0 7.4999 0.0 0
M  V30 30 O -1.732 7.5 0.0 0
M  V30 31 O 0.0 8.5 0.0 0
M  V30 32 C -2.598 6.9999 0.0 0
M  V30 33 C -0.866 8.9999 0.0 0
M  V30 END ATOM
M  V30 BEGIN BOND
M  V30 1 2 1 2
M  V30 2 1 2 3
M  V30 3 1 4 2 CFG=3
M  V30 4 1 3 5
M  V30 5 1 3 6
M  V30 6 1 4 7
M  V30 7 1 4 8
M  V30 8 1 5 9
M  V30 9 1 6 10
M  V30 10 1 7 11
M  V30 11 1 8 12
M  V30 12 1 9 13
M  V30 13 2 11 14
M  V30 14 1 11 15
M  V30 15 1 13 16
M  V30 16 1 14 17
M  V30 17 2 15 18
M  V30 18 1 16 19
M  V30 19 2 16 20
M  V30 20 2 17 21
M  V30 21 2 19 22
M  V30 22 1 20 23
M  V30 23 1 22 24
M  V30 24 1 22 25
M  V30 25 2 23 26
M  V30 26 2 25 27
M  V30 27 1 26 28
M  V30 28 1 27 29
M  V30 29 1 28 30
M  V30 30 1 29 31
M  V30 31 1 30 32
M  V30 32 1 31 33
M  V30 33 1 10 13
M  V30 34 1 12 14
M  V30 35 1 18 21
M  V30 36 1 23 25
M  V30 37 2 28 29
M  V30 END BOND
M  V30 BEGIN COLLECTION
M  V30 MDLV30/STERAC1 ATOMS=(1 4)
M  V30 END COLLECTION
M  V30 END CTAB
M  END
>  <Molecule Name>


>  <status>
-

>  <cas>
74191-85-8

>  <name>
DOXAZOSIN

>  <ID>
1250

>  <Smiles>
COc(cc1c(N)nc(N(CC2)CCN2C(C2Oc(cccc3)c3OC2)=O)nc1c1)c1OC

$$$$

Actelion Java MolfileCreator 2.0

  0  0  0  0  0  0              0 V3000
M  V30 BEGIN CTAB
M  V30 COUNTS 33 37 0 0 0
M  V30 BEGIN ATOM
M  V30 1 O 1.732 -0.5 0.0 0
M  V30 2 C 0.866 0.0 0.0 0
M  V30 3 N 0.866 1.0 0.0 0
M  V30 4 C 0.0 -0.5 0.0 0 CFG=1
M  V30 5 C 1.732 1.4999 0.0 0
M  V30 6 C 0.0 1.4999 0.0 0
M  V30 7 O -0.866 0.0 0.0 0
M  V30 8 C 0.0 -1.4999 0.0 0
M  V30 9 C 1.732 2.5 0.0 0
M  V30 10 C 0.0 2.5 0.0 0
M  V30 11 C -1.732 -0.4999 0.0 0
M  V30 12 O -0.866 -1.9999 0.0 0
M  V30 13 N 0.866 3.0 0.0 0
M  V30 14 C -1.732 -1.4999 0.0 0
M  V30 15 C -2.598 0.0 0.0 0
M  V30 16 C 0.866 4.0 0.0 0
M  V30 17 C -2.598 -1.9999 0.0 0
M  V30 18 C -3.4641 -0.4999 0.0 0
M  V30 19 N 1.732 4.5 0.0 0
M  V30 20 N 0.0 4.4999 0.0 0
M  V30 21 C -3.4641 -1.4999 0.0 0
M  V30 22 C 1.732 5.5 0.0 0
M  V30 23 C 0.0 5.4999 0.0 0
M  V30 24 N 2.598 6.0 0.0 0
M  V30 25 C 0.866 6.0 0.0 0
M  V30 26 C -0.866 5.9999 0.0 0
M  V30 27 C 0.866 7.0 0.0 0
M  V30 28 C -0.866 6.9999 0.0 0
M  V30 29 C 0.0 7.4999 0.0 0
M  V30 30 O -1.732 7.5 0.0 0
M  V30 31 O 0.0 8.5 0.0 0
M  V30 32 C -2.598 6.9999 0.0 0
M  V30 33 C -0.866 8.9999 0.0 0
M  V30 END ATOM
M  V30 BEGIN BOND
M  V30 1 2 1 2
M  V30 2 1 2 3
M  V30 3 1 4 2 CFG=3
M  V30 4 1 3 5
M  V30 5 1 3 6
M  V30 6 1 4 7
M  V30 7 1 4 8
M  V30 8 1 5 9
M  V30 9 1 6 10
M  V30 10 1 7 11
M  V30 11 1 8 12
M  V30 12 1 9 13
M  V30 13 2 11 14
M  V30 14 1 11 15
M  V30 15 1 13 16
M  V30 16 1 14 17
M  V30 17 2 15 18
M  V30 18 1 16 19
M  V30 19 2 16 20
M  V30 20 2 17 21
M  V30 21 2 19 22
M  V30 22 1 20 23
M  V30 23 1 22 24
M  V30 24 1 22 25
M  V30 25 2 23 26
M  V30 26 2 25 27
M  V30 27 1 26 28
M  V30 28 1 27 29
M  V30 29 1 28 30
M  V30 30 1 29 31
M  V30 31 1 30 32
M  V30 32 1 31 33
M  V30 33 1 10 13
M  V30 34 1 12 14
M  V30 35 1 18 21
M  V30 36 1 23 25
M  V30 37 2 28 29
M  V30 END BOND
M  V30 BEGIN COLLECTION
M  V30 MDLV30/STERAC1 ATOMS=(1 4)
M  V30 END COLLECTION
M  V30 END CTAB
M  END
>  <Molecule Name>


>  <status>
-

>  <cas>
74191-85-8

>  <name>
DOXAZOSIN

>  <ID>
1251

>  <Smiles>
COc(cc1c(N)nc(N(CC2)CCN2C(C2Oc(cccc3)c3OC2)=O)nc1c1)c1OC

$$$$

Actelion Java MolfileCreator 2.0

  0  0  0  0  0  0              0 V3000
M  V30 BEGIN CTAB
M  V30 COUNTS 91 96 0 0 0
M  V30 BEGIN ATOM
M  V30 1 O 17.9438 8.1159 0.0 0
M  V30 2 C 17.5371 7.2024 0.0 0
M  V30 3 N 16.559 6.9945 0.0 0
M  V30 4 C 18.0371 6.3364 0.0 0
M  V30 5 C 16.4544 6.0 0.0 0 CFG=1
M  V30 6 C 17.368 5.5932 0.0 0
M  V30 7 C 15.5884 5.5 0.0 0
M  V30 8 O 14.7224 6.0 0.0 0
M  V30 9 N 15.5884 4.5 0.0 0
M  V30 10 C 16.4544 4.0 0.0 0 CFG=2
M  V30 11 C 16.4544 3.0 0.0 0
M  V30 12 C 17.3205 4.5 0.0 0
M  V30 13 O 15.5884 2.5 0.0 0
M  V30 14 N 17.3205 2.4999 0.0 0
M  V30 15 C 18.1865 4.0 0.0 0
M  V30 16 C 17.3205 1.4999 0.0 0 CFG=2
M  V30 17 N 19.1 4.4067 0.0 0
M  V30 18 C 18.291 3.0054 0.0 0
M  V30 19 C 16.4544 0.9999 0.0 0
M  V30 20 C 18.1865 0.9999 0.0 0
M  V30 21 C 19.7692 3.6635 0.0 0
M  V30 22 N 19.2692 2.7975 0.0 0
M  V30 23 O 15.5884 1.5 0.0 0
M  V30 24 N 16.4544 0.0 0.0 0
M  V30 25 C 18.1865 0.0 0.0 0
M  V30 26 C 15.5884 -0.5 0.0 0 CFG=2
M  V30 27 C 18.9955 -0.5877 0.0 0
M  V30 28 C 17.3775 -0.5877 0.0 0
M  V30 29 C 14.7224 0.0 0.0 0
M  V30 30 C 15.5884 -1.4999 0.0 0
M  V30 31 C 18.6865 -1.5388 0.0 0
M  V30 32 C 19.9736 -0.3798 0.0 0
M  V30 33 N 17.6865 -1.5388 0.0 0
M  V30 34 O 14.7224 0.9999 0.0 0
M  V30 35 N 13.8564 -0.5 0.0 0
M  V30 36 O 16.4544 -2.0 0.0 0
M  V30 37 C 19.3556 -2.2819 0.0 0
M  V30 38 C 20.6428 -1.123 0.0 0
M  V30 39 C 12.9903 0.0 0.0 0 CFG=2
M  V30 40 C 20.3338 -2.074 0.0 0
M  V30 41 C 12.1243 -0.5 0.0 0
M  V30 42 C 12.9903 0.9999 0.0 0
M  V30 43 O 12.1243 -1.5 0.0 0
M  V30 44 N 11.2583 0.0 0.0 0
M  V30 45 C 12.1243 1.4999 0.0 0
M  V30 46 C 10.3923 -0.5 0.0 0 CFG=1
M  V30 47 C 12.1243 2.4999 0.0 0
M  V30 48 C 11.2583 0.9999 0.0 0
M  V30 49 C 9.5262 0.0 0.0 0
M  V30 50 C 10.3923 -1.4999 0.0 0
M  V30 51 C 11.2583 3.0 0.0 0
M  V30 52 C 10.3923 1.4999 0.0 0
M  V30 53 O 9.5262 1.0 0.0 0
M  V30 54 N 8.6602 -0.5 0.0 0
M  V30 55 O 11.2583 -2.0 0.0 0
M  V30 56 C 10.3923 2.5 0.0 0
M  V30 57 C 7.7942 0.0 0.0 0 CFG=2
M  V30 58 C 11.2583 -2.9999 0.0 0
M  V30 59 O 9.5262 3.0 0.0 0
M  V30 60 C 6.9282 -0.5 0.0 0
M  V30 61 C 7.7942 1.0 0.0 0
M  V30 62 C 10.2583 -3.0 0.0 0
M  V30 63 C 11.2583 -4.0 0.0 0
M  V30 64 C 12.2583 -3.0 0.0 0
M  V30 65 O 6.9282 -1.5 0.0 0
M  V30 66 N 6.0621 0.0 0.0 0
M  V30 67 C 6.9282 1.5 0.0 0
M  V30 68 C 5.1961 -0.4999 0.0 0 CFG=2
M  V30 69 C 6.0621 0.9999 0.0 0
M  V30 70 C 6.9282 2.4999 0.0 0
M  V30 71 C 5.1961 -1.5 0.0 0
M  V30 72 C 4.3301 0.0 0.0 0
M  V30 73 O 6.0621 -2.0 0.0 0
M  V30 74 N 4.3301 -2.0 0.0 0
M  V30 75 C 3.4641 -0.5 0.0 0
M  V30 76 C 4.2255 -2.9945 0.0 0 CFG=2
M  V30 77 C 3.4165 -1.5932 0.0 0
M  V30 78 C 2.598 0.0 0.0 0
M  V30 79 C 4.9687 -3.6636 0.0 0
M  V30 80 C 3.2474 -3.2024 0.0 0
M  V30 81 C 2.7474 -2.3364 0.0 0
M  V30 82 N 1.732 -0.5 0.0 0
M  V30 83 O 5.9197 -3.3546 0.0 0
M  V30 84 N 4.7608 -4.6418 0.0 0
M  V30 85 C 0.866 0.0 0.0 0
M  V30 86 N 5.5039 -5.3109 0.0 0
M  V30 87 N 0.866 0.9999 0.0 0 CHG=1
M  V30 88 N 0.0 -0.5 0.0 0
M  V30 89 C 6.455 -5.0019 0.0 0
M  V30 90 O 6.6629 -4.0237 0.0 0
M  V30 91 N 7.1981 -5.671 0.0 0
M  V30 END ATOM
M  V30 BEGIN BOND
M  V30 1 2 1 2
M  V30 2 1 2 3
M  V30 3 1 2 4
M  V30 4 1 5 3
M  V30 5 1 4 6
M  V30 6 1 5 7 CFG=1
M  V30 7 2 7 8
M  V30 8 1 7 9
M  V30 9 1 10 9 CFG=1
M  V30 10 1 10 11
M  V30 11 1 10 12
M  V30 12 2 11 13
M  V30 13 1 11 14
M  V30 14 1 12 15
M  V30 15 1 16 14 CFG=1
M  V30 16 1 15 17
M  V30 17 2 15 18
M  V30 18 1 16 19
M  V30 19 1 16 20
M  V30 20 2 17 21
M  V30 21 1 18 22
M  V30 22 2 19 23
M  V30 23 1 19 24
M  V30 24 1 20 25
M  V30 25 1 26 24 CFG=1
M  V30 26 1 25 27
M  V30 27 2 25 28
M  V30 28 1 26 29
M  V30 29 1 26 30
M  V30 30 2 27 31
M  V30 31 1 27 32
M  V30 32 1 28 33
M  V30 33 2 29 34
M  V30 34 1 29 35
M  V30 35 1 30 36
M  V30 36 1 31 37
M  V30 37 2 32 38
M  V30 38 1 39 35 CFG=3
M  V30 39 2 37 40
M  V30 40 1 39 41
M  V30 41 1 39 42
M  V30 42 2 41 43
M  V30 43 1 41 44
M  V30 44 1 42 45
M  V30 45 1 46 44 CFG=3
M  V30 46 2 45 47
M  V30 47 1 45 48
M  V30 48 1 46 49
M  V30 49 1 46 50
M  V30 50 1 47 51
M  V30 51 2 48 52
M  V30 52 2 49 53
M  V30 53 1 49 54
M  V30 54 1 50 55
M  V30 55 2 51 56
M  V30 56 1 57 54 CFG=3
M  V30 57 1 55 58
M  V30 58 1 56 59
M  V30 59 1 57 60
M  V30 60 1 57 61
M  V30 61 1 58 62
M  V30 62 1 58 63
M  V30 63 1 58 64
M  V30 64 2 60 65
M  V30 65 1 60 66
M  V30 66 1 61 67
M  V30 67 1 68 66 CFG=3
M  V30 68 1 67 69
M  V30 69 1 67 70
M  V30 70 1 68 71
M  V30 71 1 68 72
M  V30 72 2 71 73
M  V30 73 1 71 74
M  V30 74 1 72 75
M  V30 75 1 76 74
M  V30 76 1 74 77
M  V30 77 1 75 78
M  V30 78 1 76 79 CFG=3
M  V30 79 1 76 80
M  V30 80 1 77 81
M  V30 81 1 78 82
M  V30 82 2 79 83
M  V30 83 1 79 84
M  V30 84 1 82 85
M  V30 85 1 84 86
M  V30 86 2 85 87
M  V30 87 1 85 88
M  V30 88 1 86 89
M  V30 89 2 89 90
M  V30 90 1 89 91
M  V30 91 1 5 6
M  V30 92 1 21 22
M  V30 93 1 31 33
M  V30 94 1 38 40
M  V30 95 1 52 56
M  V30 96 1 80 81
M  V30 END BOND
M  V30 BEGIN COLLECTION
M  V30 MDLV30/STERAC1 ATOMS=(9 5 10 16 26 39 46 57 68 76)
M  V30 END COLLECTION
M  V30 END CTAB
M  END
>  <Molecule Name>


>  <status>
-

>  <cas>
65807-02-5

>  <name>
GOSERELIN

>  <ID>
1252

>  <Smiles>
CC(C)C[C@@H](C(N[C@@H](CCCNC(N)=[NH2+])C(N(CCC1)[C@@H]1C(NNC(N)=O)=O)=O)=O)NC([C@@H](COC(C)(C)C)NC([C@H](Cc(cc1)ccc1O)NC([C@H](CO)NC([C@H](Cc1c[nH]c2c1cccc2)NC([C@H](Cc1c[nH]cn1)NC([C@H](CC1)NC1=O)=O)=O)=O)=O)=O)=O

$$$$

Actelion Java MolfileCreator 2.0

  0  0  0  0  0  0              0 V3000
M  V30 BEGIN CTAB
M  V30 COUNTS 96 103 0 0 0
M  V30 BEGIN ATOM
M  V30 1 O 18.2655 13.8841 0.0 0
M  V30 2 C 19.7612 14.0413 0.0 0
M  V30 3 N 20.7676 12.9236 0.0 0
M  V30 4 C 20.5132 15.3437 0.0 0
M  V30 5 C 22.1415 13.5353 0.0 0 CFG=1
M  V30 6 C 21.9843 15.031 0.0 0
M  V30 7 C 23.4439 12.7834 0.0 0
M  V30 8 O 24.7463 13.5353 0.0 0
M  V30 9 N 23.4439 11.2794 0.0 0
M  V30 10 C 22.1415 10.5275 0.0 0 CFG=2
M  V30 11 C 22.1415 9.0235 0.0 0
M  V30 12 C 20.839 11.2794 0.0 0
M  V30 13 O 20.839 8.2716 0.0 0
M  V30 14 N 23.4439 8.2716 0.0 0
M  V30 15 C 19.5366 10.5275 0.0 0
M  V30 16 C 23.4439 6.7676 0.0 0 CFG=2
M  V30 17 N 18.1627 11.1392 0.0 0
M  V30 18 C 19.3794 9.0318 0.0 0
M  V30 19 C 22.1415 6.0157 0.0 0
M  V30 20 C 24.7463 6.0157 0.0 0
M  V30 21 C 17.1563 10.0215 0.0 0
M  V30 22 N 17.9083 8.7191 0.0 0
M  V30 23 O 20.839 6.7676 0.0 0
M  V30 24 N 22.1415 4.5117 0.0 0
M  V30 25 C 26.0488 6.7676 0.0 0
M  V30 26 C 20.839 3.7598 0.0 0 CFG=2
M  V30 27 C 27.4227 6.1559 0.0 0
M  V30 28 C 26.206 8.2633 0.0 0
M  V30 29 C 20.839 2.2558 0.0 0
M  V30 30 C 19.5366 4.5117 0.0 0
M  V30 31 C 28.429 7.2736 0.0 0
M  V30 32 C 27.8874 4.7256 0.0 0
M  V30 33 N 27.6771 8.576 0.0 0
M  V30 34 O 22.0152 1.6814 0.0 0
M  V30 35 N 19.5366 1.5039 0.0 0
M  V30 36 O 19.5366 6.0157 0.0 0
M  V30 37 C 29.9001 6.9609 0.0 0
M  V30 38 C 29.3585 4.4129 0.0 0
M  V30 39 C 19.5366 0.0 0.0 0 CFG=2
M  V30 40 C 30.3648 5.5306 0.0 0
M  V30 41 C 18.2341 -0.7519 0.0 0
M  V30 42 C 20.839 -0.7519 0.0 0
M  V30 43 O 18.2341 -2.2558 0.0 0
M  V30 44 N 16.9317 0.0 0.0 0
M  V30 45 C 22.1415 0.0 0.0 0
M  V30 46 C 15.6293 -0.7519 0.0 0 CFG=1
M  V30 47 C 23.4439 -0.7519 0.0 0
M  V30 48 C 22.2962 1.2862 0.0 0
M  V30 49 C 15.6293 -2.2558 0.0 0
M  V30 50 C 14.3268 0.0 0.0 0
M  V30 51 C 24.7463 0.0 0.0 0
M  V30 52 C 23.4439 2.2558 0.0 0
M  V30 53 O 16.9317 -3.0078 0.0 0
M  V30 54 N 14.3268 -3.0078 0.0 0
M  V30 55 C 14.3268 1.5039 0.0 0
M  V30 56 C 24.7463 1.5039 0.0 0
M  V30 57 C 13.0244 -2.2558 0.0 0 CFG=2
M  V30 58 C 15.6293 2.2558 0.0 0
M  V30 59 C 13.0244 2.2558 0.0 0
M  V30 60 O 26.0488 2.2558 0.0 0
M  V30 61 C 11.7219 -3.0078 0.0 0
M  V30 62 C 13.0244 -0.7519 0.0 0
M  V30 63 C 15.6293 3.7598 0.0 0
M  V30 64 C 13.0244 3.7598 0.0 0
M  V30 65 O 11.7219 -4.5117 0.0 0
M  V30 66 N 10.4195 -2.2558 0.0 0
M  V30 67 C 11.7219 0.0 0.0 0
M  V30 68 C 14.3268 4.5117 0.0 0
M  V30 69 C 16.9317 4.5117 0.0 0
M  V30 70 C 9.117 -3.0078 0.0 0 CFG=2
M  V30 71 C 10.4195 -0.7519 0.0 0
M  V30 72 C 11.7219 1.5039 0.0 0
M  V30 73 C 14.3268 6.0157 0.0 0
M  V30 74 C 16.9317 6.0157 0.0 0
M  V30 75 C 7.8146 -2.2558 0.0 0
M  V30 76 C 9.117 -4.5117 0.0 0
M  V30 77 C 15.6293 6.7676 0.0 0
M  V30 78 O 7.8146 -0.7519 0.0 0
M  V30 79 N 6.5122 -3.0078 0.0 0
M  V30 80 C 10.4195 -5.2637 0.0 0
M  V30 81 C 5.1383 -2.3961 0.0 0 CFG=2
M  V30 82 C 6.355 -4.5035 0.0 0
M  V30 83 C 10.4195 -6.7676 0.0 0
M  V30 84 C 4.8256 -0.925 0.0 0
M  V30 85 C 4.1319 -3.5137 0.0 0
M  V30 86 C 4.8839 -4.8162 0.0 0
M  V30 87 N 11.7219 -7.5196 0.0 0
M  V30 88 O 5.9432 0.0812 0.0 0
M  V30 89 N 3.3952 -0.4603 0.0 0
M  V30 90 C 11.7219 -9.0235 0.0 0
M  V30 91 C 3.0826 1.0107 0.0 0
M  V30 92 N 10.4195 -9.7755 0.0 0 CHG=1
M  V30 93 N 13.0244 -9.7755 0.0 0
M  V30 94 C 1.6522 1.4754 0.0 0
M  V30 95 O 0.5346 0.4691 0.0 0
M  V30 96 N 1.3396 2.9465 0.0 0
M  V30 END ATOM
M  V30 BEGIN BOND
M  V30 1 2 1 2
M  V30 2 1 2 3
M  V30 3 1 2 4
M  V30 4 1 5 3
M  V30 5 1 4 6
M  V30 6 1 5 7 CFG=1
M  V30 7 2 7 8
M  V30 8 1 7 9
M  V30 9 1 10 9 CFG=3
M  V30 10 1 10 11
M  V30 11 1 10 12
M  V30 12 2 11 13
M  V30 13 1 11 14
M  V30 14 1 12 15
M  V30 15 1 16 14 CFG=1
M  V30 16 1 15 17
M  V30 17 2 15 18
M  V30 18 1 16 19
M  V30 19 1 16 20
M  V30 20 2 17 21
M  V30 21 1 18 22
M  V30 22 2 19 23
M  V30 23 1 19 24
M  V30 24 1 20 25
M  V30 25 1 26 24 CFG=3
M  V30 26 1 25 27
M  V30 27 2 25 28
M  V30 28 1 26 29
M  V30 29 1 26 30
M  V30 30 2 27 31
M  V30 31 1 27 32
M  V30 32 1 28 33
M  V30 33 2 29 34
M  V30 34 1 29 35
M  V30 35 1 30 36
M  V30 36 1 31 37
M  V30 37 2 32 38
M  V30 38 1 39 35 CFG=1
M  V30 39 2 37 40
M  V30 40 1 39 41
M  V30 41 1 39 42
M  V30 42 2 41 43
M  V30 43 1 41 44
M  V30 44 1 42 45
M  V30 45 1 46 44 CFG=1
M  V30 46 2 45 47
M  V30 47 1 45 48
M  V30 48 1 46 49
M  V30 49 1 46 50
M  V30 50 1 47 51
M  V30 51 2 48 52
M  V30 52 2 49 53
M  V30 53 1 49 54
M  V30 54 1 50 55
M  V30 55 2 51 56
M  V30 56 1 57 54 CFG=3
M  V30 57 2 55 58
M  V30 58 1 55 59
M  V30 59 1 56 60
M  V30 60 1 57 61
M  V30 61 1 57 62
M  V30 62 1 58 63
M  V30 63 2 59 64
M  V30 64 2 61 65
M  V30 65 1 61 66
M  V30 66 1 62 67
M  V30 67 1 63 68
M  V30 68 2 63 69
M  V30 69 1 70 66 CFG=1
M  V30 70 1 67 71
M  V30 71 1 67 72
M  V30 72 2 68 73
M  V30 73 1 69 74
M  V30 74 1 70 75
M  V30 75 1 70 76
M  V30 76 1 73 77
M  V30 77 2 75 78
M  V30 78 1 75 79
M  V30 79 1 76 80
M  V30 80 1 81 79
M  V30 81 1 79 82
M  V30 82 1 80 83
M  V30 83 1 81 84 CFG=1
M  V30 84 1 81 85
M  V30 85 1 82 86
M  V30 86 1 83 87
M  V30 87 2 84 88
M  V30 88 1 84 89
M  V30 89 1 87 90
M  V30 90 1 89 91
M  V30 91 2 90 92
M  V30 92 1 90 93
M  V30 93 1 91 94
M  V30 94 2 94 95
M  V30 95 1 94 96
M  V30 96 1 5 6
M  V30 97 1 21 22
M  V30 98 1 31 33
M  V30 99 1 38 40
M  V30 100 1 52 56
M  V30 101 1 64 68
M  V30 102 2 74 77
M  V30 103 1 85 86
M  V30 END BOND
M  V30 BEGIN COLLECTION
M  V30 MDLV30/STERAC1 ATOMS=(9 5 10 16 26 39 46 57 70 81)
M  V30 END COLLECTION
M  V30 END CTAB
M  END
>  <Molecule Name>


>  <status>
-

>  <cas>
76932-56-4

>  <name>
NAFARELIN

>  <ID>
1253

>  <Smiles>
CC(C)C[C@@H](C(N[C@@H](CCCNC(N)=[NH2+])C(N(CCC1)[C@@H]1C(NCC(N)=O)=O)=O)=O)NC([C@@H](Cc1cc2ccccc2cc1)NC([C@H](Cc(cc1)ccc1O)NC([C@H](CO)NC([C@H](Cc1c[nH]c2c1cccc2)NC([C@H](Cc1c[nH]cn1)NC([C@H](CC1)NC1=O)=O)=O)=O)=O)=O)=O

$$$$

Actelion Java MolfileCreator 2.0

  0  0  0  0  0  0              0 V3000
M  V30 BEGIN CTAB
M  V30 COUNTS 21 23 0 0 0
M  V30 BEGIN ATOM
M  V30 1 Cl 0.866 0.0 0.0 0
M  V30 2 C 0.0 -0.5 0.0 0
M  V30 3 C -0.866 0.0 0.0 0
M  V30 4 C 0.0 -1.4999 0.0 0
M  V30 5 O -0.866 1.0 0.0 0
M  V30 6 C -1.732 -0.4999 0.0 0
M  V30 7 C -0.866 -1.9999 0.0 0
M  V30 8 C 0.9308 -1.8653 0.0 0
M  V30 9 O -2.598 0.0 0.0 0
M  V30 10 C -1.732 -1.4999 0.0 0
M  V30 11 C -1.015 -2.9888 0.0 0 CFG=2
M  V30 12 C 1.2256 -2.8209 0.0 0
M  V30 13 C -1.9706 -3.2835 0.0 0
M  V30 14 C -0.3348 -3.7218 0.0 0
M  V30 15 N 0.6623 -3.6471 0.0 0
M  V30 16 C -2.7036 -2.6034 0.0 0
M  V30 17 C -2.1931 -4.2585 0.0 0
M  V30 18 C -3.6592 -2.8981 0.0 0
M  V30 19 C -3.1487 -4.5532 0.0 0
M  V30 20 C -3.8817 -3.873 0.0 0
M  V30 21 O -4.8373 -4.1678 0.0 0
M  V30 END ATOM
M  V30 BEGIN BOND
M  V30 1 1 1 2
M  V30 2 2 2 3
M  V30 3 1 2 4
M  V30 4 1 3 5
M  V30 5 1 3 6
M  V30 6 2 4 7
M  V30 7 1 4 8
M  V30 8 1 6 9
M  V30 9 2 6 10
M  V30 10 1 11 7
M  V30 11 1 8 12
M  V30 12 1 11 13 CFG=1
M  V30 13 1 11 14
M  V30 14 1 12 15
M  V30 15 2 13 16
M  V30 16 1 13 17
M  V30 17 1 16 18
M  V30 18 2 17 19
M  V30 19 2 18 20
M  V30 20 1 20 21
M  V30 21 1 7 10
M  V30 22 1 14 15
M  V30 23 1 19 20
M  V30 END BOND
M  V30 BEGIN COLLECTION
M  V30 MDLV30/STERAC1 ATOMS=(1 11)
M  V30 END COLLECTION
M  V30 END CTAB
M  END
>  <Molecule Name>


>  <status>
-

>  <cas>
67227-56-9

>  <name>
FENOLDOPAM

>  <ID>
1254

>  <Smiles>
Oc1ccc(C(CNCC2)c(cc3O)c2c(Cl)c3O)cc1

$$$$

Actelion Java MolfileCreator 2.0

  0  0  0  0  0  0              0 V3000
M  V30 BEGIN CTAB
M  V30 COUNTS 21 23 0 0 0
M  V30 BEGIN ATOM
M  V30 1 Cl 0.866 0.0 0.0 0
M  V30 2 C 0.0 -0.5 0.0 0
M  V30 3 C -0.866 0.0 0.0 0
M  V30 4 C 0.0 -1.4999 0.0 0
M  V30 5 O -0.866 1.0 0.0 0
M  V30 6 C -1.732 -0.4999 0.0 0
M  V30 7 C -0.866 -1.9999 0.0 0
M  V30 8 C 0.9308 -1.8653 0.0 0
M  V30 9 O -2.598 0.0 0.0 0
M  V30 10 C -1.732 -1.4999 0.0 0
M  V30 11 C -1.015 -2.9888 0.0 0 CFG=2
M  V30 12 C 1.2256 -2.8209 0.0 0
M  V30 13 C -1.9706 -3.2835 0.0 0
M  V30 14 C -0.3348 -3.7218 0.0 0
M  V30 15 N 0.6623 -3.6471 0.0 0
M  V30 16 C -2.7036 -2.6034 0.0 0
M  V30 17 C -2.1931 -4.2585 0.0 0
M  V30 18 C -3.6592 -2.8981 0.0 0
M  V30 19 C -3.1487 -4.5532 0.0 0
M  V30 20 C -3.8817 -3.873 0.0 0
M  V30 21 O -4.8373 -4.1678 0.0 0
M  V30 END ATOM
M  V30 BEGIN BOND
M  V30 1 1 1 2
M  V30 2 2 2 3
M  V30 3 1 2 4
M  V30 4 1 3 5
M  V30 5 1 3 6
M  V30 6 2 4 7
M  V30 7 1 4 8
M  V30 8 1 6 9
M  V30 9 2 6 10
M  V30 10 1 11 7
M  V30 11 1 8 12
M  V30 12 1 11 13 CFG=1
M  V30 13 1 11 14
M  V30 14 1 12 15
M  V30 15 2 13 16
M  V30 16 1 13 17
M  V30 17 1 16 18
M  V30 18 2 17 19
M  V30 19 2 18 20
M  V30 20 1 20 21
M  V30 21 1 7 10
M  V30 22 1 14 15
M  V30 23 1 19 20
M  V30 END BOND
M  V30 BEGIN COLLECTION
M  V30 MDLV30/STERAC1 ATOMS=(1 11)
M  V30 END COLLECTION
M  V30 END CTAB
M  END
>  <Molecule Name>


>  <status>
-

>  <cas>
67227-56-9

>  <name>
FENOLDOPAM

>  <ID>
1255

>  <Smiles>
Oc1ccc(C(CNCC2)c(cc3O)c2c(Cl)c3O)cc1

$$$$

Actelion Java MolfileCreator 2.0

  0  0  0  0  0  0              0 V3000
M  V30 BEGIN CTAB
M  V30 COUNTS 13 12 0 0 0
M  V30 BEGIN ATOM
M  V30 1 P 3.4641 -0.5 0.0 0
M  V30 2 O 2.9641 -1.366 0.0 0
M  V30 3 O 4.3301 -0.9999 0.0 0 CHG=-1
M  V30 4 O 3.9641 0.366 0.0 0 CHG=-1
M  V30 5 C 2.598 0.0 0.0 0
M  V30 6 P 2.598 1.0 0.0 0
M  V30 7 O 2.598 -1.0 0.0 0
M  V30 8 C 1.732 -0.5 0.0 0
M  V30 9 O 3.598 1.0 0.0 0
M  V30 10 O 2.598 2.0 0.0 0 CHG=-1
M  V30 11 O 1.598 1.0 0.0 0 CHG=-1
M  V30 12 C 0.866 0.0 0.0 0
M  V30 13 N 0.0 -0.5 0.0 0
M  V30 END ATOM
M  V30 BEGIN BOND
M  V30 1 2 1 2
M  V30 2 1 1 3
M  V30 3 1 1 4
M  V30 4 1 1 5
M  V30 5 1 5 6
M  V30 6 1 5 7
M  V30 7 1 5 8
M  V30 8 2 6 9
M  V30 9 1 6 10
M  V30 10 1 6 11
M  V30 11 1 8 12
M  V30 12 1 12 13
M  V30 END BOND
M  V30 END CTAB
M  END
>  <Molecule Name>


>  <status>
-

>  <cas>
57248-88-1

>  <name>
PAMIDRONATE

>  <ID>
1256

>  <Smiles>
NCCC(O)(P([O-])([O-])=O)P([O-])([O-])=O

$$$$

Actelion Java MolfileCreator 2.0

  0  0  0  0  0  0              0 V3000
M  V30 BEGIN CTAB
M  V30 COUNTS 20 21 0 0 0
M  V30 BEGIN ATOM
M  V30 1 S 2.3418 -5.5859 0.0 0
M  V30 2 O 2.6537 -4.1187 0.0 0
M  V30 3 O 1.2271 -4.5822 0.0 0
M  V30 4 N 1.3381 -6.7006 0.0 0
M  V30 5 C 3.809 -5.8978 0.0 0
M  V30 6 C -0.129 -6.3887 0.0 0
M  V30 7 C 4.8127 -4.783 0.0 0
M  V30 8 C 4.3492 -3.3565 0.0 0
M  V30 9 C 6.28 -5.0949 0.0 0
M  V30 10 C 5.3529 -2.2417 0.0 0
M  V30 11 C 7.2837 -3.9802 0.0 0
M  V30 12 C 6.8201 -2.5536 0.0 0
M  V30 13 C 5.1961 -0.75 0.0 0
M  V30 14 N 7.5701 -1.2546 0.0 0
M  V30 15 C 6.5664 -0.1398 0.0 0
M  V30 16 C 3.8971 0.0 0.0 0
M  V30 17 C 2.598 -0.75 0.0 0
M  V30 18 N 1.299 0.0 0.0 0
M  V30 19 C 1.299 1.5 0.0 0
M  V30 20 C 0.0 -0.75 0.0 0
M  V30 END ATOM
M  V30 BEGIN BOND
M  V30 1 2 1 2
M  V30 2 2 1 3
M  V30 3 1 1 4
M  V30 4 1 1 5
M  V30 5 1 4 6
M  V30 6 1 5 7
M  V30 7 2 7 8
M  V30 8 1 7 9
M  V30 9 1 8 10
M  V30 10 2 9 11
M  V30 11 2 10 12
M  V30 12 1 10 13
M  V30 13 1 12 14
M  V30 14 2 13 15
M  V30 15 1 13 16
M  V30 16 1 16 17
M  V30 17 1 17 18
M  V30 18 1 18 19
M  V30 19 1 18 20
M  V30 20 1 11 12
M  V30 21 1 14 15
M  V30 END BOND
M  V30 END CTAB
M  END
>  <Molecule Name>


>  <status>
-

>  <cas>
103628-46-2

>  <name>
SUMATRIPTAN

>  <ID>
1257

>  <Smiles>
CNS(Cc(cc1)cc2c1[nH]cc2CCN(C)C)(=O)=O

$$$$

Actelion Java MolfileCreator 2.0

  0  0  0  0  0  0              0 V3000
M  V30 BEGIN CTAB
M  V30 COUNTS 34 35 0 0 0
M  V30 BEGIN ATOM
M  V30 1 S -2.598 1.0 0.0 0
M  V30 2 O -1.598 1.0 0.0 0
M  V30 3 O -3.598 1.0 0.0 0
M  V30 4 O -2.598 0.0 0.0 0
M  V30 5 O -2.598 2.0 0.0 0
M  V30 6 C -1.732 -0.4999 0.0 0 CFG=2
M  V30 7 C -0.866 0.0 0.0 0 CFG=2
M  V30 8 C -1.732 -1.4999 0.0 0 CFG=2
M  V30 9 O 0.0 -0.4999 0.0 0
M  V30 10 O -0.866 1.0 0.0 0
M  V30 11 S -2.598 -1.9999 0.0 0
M  V30 12 C -0.866 -1.9999 0.0 0 CFG=2
M  V30 13 C 0.0 -1.5 0.0 0
M  V30 14 O -2.098 -2.866 0.0 0
M  V30 15 O -3.098 -1.1339 0.0 0
M  V30 16 O -3.4641 -2.4999 0.0 0
M  V30 17 O -0.866 -2.9999 0.0 0
M  V30 18 C 0.0 -3.4999 0.0 0 CFG=1
M  V30 19 O 0.866 -2.9999 0.0 0
M  V30 20 C 0.0 -4.4999 0.0 0 CFG=1
M  V30 21 C 1.732 -3.5 0.0 0
M  V30 22 O -0.866 -4.9999 0.0 0
M  V30 23 C 0.866 -4.9999 0.0 0 CFG=1
M  V30 24 C 1.732 -4.5 0.0 0 CFG=1
M  V30 25 S -1.732 -4.4999 0.0 0
M  V30 26 O 0.866 -5.9999 0.0 0
M  V30 27 O 2.598 -4.9999 0.0 0
M  V30 28 O -2.232 -5.366 0.0 0
M  V30 29 O -1.232 -3.6339 0.0 0
M  V30 30 O -2.598 -4.0 0.0 0
M  V30 31 S 1.732 -6.4999 0.0 0
M  V30 32 O 1.232 -7.366 0.0 0
M  V30 33 O 2.232 -5.6339 0.0 0
M  V30 34 O 2.598 -7.0 0.0 0
M  V30 END ATOM
M  V30 BEGIN BOND
M  V30 1 2 1 2
M  V30 2 2 1 3
M  V30 3 1 1 4
M  V30 4 1 1 5
M  V30 5 1 6 4 CFG=3
M  V30 6 1 7 6
M  V30 7 1 8 6
M  V30 8 1 7 9
M  V30 9 1 7 10 CFG=1
M  V30 10 1 8 11 CFG=1
M  V30 11 1 12 8
M  V30 12 1 9 13
M  V30 13 2 11 14
M  V30 14 2 11 15
M  V30 15 1 11 16
M  V30 16 1 12 17 CFG=3
M  V30 17 1 18 17 CFG=1
M  V30 18 1 18 19
M  V30 19 1 20 18
M  V30 20 1 19 21
M  V30 21 1 20 22 CFG=3
M  V30 22 1 23 20
M  V30 23 1 24 21
M  V30 24 1 22 25
M  V30 25 1 23 26 CFG=1
M  V30 26 1 24 27 CFG=3
M  V30 27 2 25 28
M  V30 28 2 25 29
M  V30 29 1 25 30
M  V30 30 1 26 31
M  V30 31 2 31 32
M  V30 32 2 31 33
M  V30 33 1 31 34
M  V30 34 1 12 13
M  V30 35 1 23 24
M  V30 END BOND
M  V30 BEGIN COLLECTION
M  V30 MDLV30/STERAC1 ATOMS=(8 6 7 8 12 18 20 23 24)
M  V30 END COLLECTION
M  V30 END CTAB
M  END
>  <Molecule Name>


>  <status>
-

>  <cas>
9014-63-5

>  <name>
PENTOSAN POLYSULFATE

>  <ID>
1258

>  <Smiles>
O[C@@H](CO[C@@H]([C@H]1OS(O)(=O)=O)O[C@@H](CO[C@@H]([C@H]2OS(O)(=O)=O)O)[C@H]2S(O)(=O)=O)[C@H]1OS(O)(=O)=O

$$$$

Actelion Java MolfileCreator 2.0

  0  0  0  0  0  0              0 V3000
M  V30 BEGIN CTAB
M  V30 COUNTS 38 43 0 0 0
M  V30 BEGIN ATOM
M  V30 1 O 2.598 2.2499 0.0 0
M  V30 2 C 1.299 1.4999 0.0 0
M  V30 3 O 1.299 0.0 0.0 0
M  V30 4 C 0.0 2.25 0.0 0
M  V30 5 C 0.0 -0.75 0.0 0 CFG=2
M  V30 6 C -1.3703 -0.1398 0.0 0 CFG=2
M  V30 7 C -0.1567 -2.2417 0.0 0 CFG=1
M  V30 8 C -2.374 -1.2546 0.0 0 CFG=1
M  V30 9 C -1.8338 1.2866 0.0 0
M  V30 10 C -0.2556 0.8638 0.0 0
M  V30 11 N 0.9579 -3.2454 0.0 0 CHG=1
M  V30 12 C -1.624 -2.5536 0.0 0
M  V30 13 C -3.8412 -0.9427 0.0 0 CFG=1
M  V30 14 C -3.301 1.5985 0.0 0
M  V30 15 C 1.9019 -4.4111 0.0 0
M  V30 16 C -0.4424 -3.783 0.0 0
M  V30 17 C 1.3461 -1.7965 0.0 0
M  V30 18 C -4.3047 0.4838 0.0 0 CFG=2
M  V30 19 C -4.8449 -2.0574 0.0 0
M  V30 20 C 1.0849 -5.6692 0.0 0
M  V30 21 C -0.3639 -5.2809 0.0 0
M  V30 22 C 2.795 -1.4083 0.0 0
M  V30 23 C -5.7719 0.7957 0.0 0 CFG=2
M  V30 24 C -6.3121 -1.7455 0.0 0
M  V30 25 C 3.1832 0.0405 0.0 0
M  V30 26 C -6.7756 -0.319 0.0 0 CFG=1
M  V30 27 C -6.2355 2.2222 0.0 0
M  V30 28 C -4.7682 1.9104 0.0 0
M  V30 29 C -8.2428 -0.0071 0.0 0
M  V30 30 C -7.7027 2.5341 0.0 0 CFG=1
M  V30 31 C -8.7064 1.4194 0.0 0 CFG=1
M  V30 32 N -8.1662 3.9607 0.0 0
M  V30 33 O -10.1736 1.7313 0.0 0
M  V30 34 C -7.1625 5.0754 0.0 0
M  V30 35 C -9.6334 4.2726 0.0 0
M  V30 36 C -7.626 6.502 0.0 0
M  V30 37 C -10.097 5.6991 0.0 0
M  V30 38 O -9.0933 6.8139 0.0 0
M  V30 END ATOM
M  V30 BEGIN BOND
M  V30 1 2 1 2
M  V30 2 1 2 3
M  V30 3 1 2 4
M  V30 4 1 5 3 CFG=1
M  V30 5 1 6 5
M  V30 6 1 7 5
M  V30 7 1 8 6
M  V30 8 1 6 9
M  V30 9 1 6 10 CFG=1
M  V30 10 1 7 11 CFG=1
M  V30 11 1 7 12
M  V30 12 1 13 8
M  V30 13 1 9 14
M  V30 14 1 11 15
M  V30 15 1 11 16
M  V30 16 1 11 17
M  V30 17 1 18 13
M  V30 18 1 13 19 CFG=3
M  V30 19 1 15 20
M  V30 20 1 16 21
M  V30 21 1 17 22
M  V30 22 1 23 18
M  V30 23 1 19 24
M  V30 24 2 22 25
M  V30 25 1 26 23
M  V30 26 1 23 27
M  V30 27 1 23 28 CFG=1
M  V30 28 1 26 29 CFG=1
M  V30 29 1 30 27
M  V30 30 1 31 29
M  V30 31 1 30 32 CFG=1
M  V30 32 1 31 33 CFG=3
M  V30 33 1 32 34
M  V30 34 1 32 35
M  V30 35 1 34 36
M  V30 36 1 35 37
M  V30 37 1 36 38
M  V30 38 1 8 12 CFG=1
M  V30 39 1 18 14 CFG=1
M  V30 40 1 20 21
M  V30 41 1 24 26
M  V30 42 1 30 31
M  V30 43 1 37 38
M  V30 END BOND
M  V30 BEGIN COLLECTION
M  V30 MDLV30/STERAC1 ATOMS=(10 5 6 7 8 13 18 23 26 30 31)
M  V30 END COLLECTION
M  V30 END CTAB
M  END
>  <Molecule Name>


>  <status>
-

>  <cas>
143558-00-3

>  <name>
ROCURONIUM

>  <ID>
1259

>  <Smiles>
C[C@](CC1)([C@@H](C[C@@H]2[N+]3(CC=C)CCCC3)[C@H](CC3)[C@H]1[C@@](C)(C[C@@H]1N4CCOCC4)[C@@H]3C[C@@H]1O)[C@H]2OC(C)=O

$$$$

Actelion Java MolfileCreator 2.0

  0  0  0  0  0  0              0 V3000
M  V30 BEGIN CTAB
M  V30 COUNTS 26 27 0 0 0
M  V30 BEGIN ATOM
M  V30 1 O 6.9282 -0.5 0.0 0
M  V30 2 C 6.0621 0.0 0.0 0
M  V30 3 O 5.1961 -0.5 0.0 0
M  V30 4 C 6.0621 0.9999 0.0 0
M  V30 5 C 4.3301 0.0 0.0 0 CFG=2
M  V30 6 C 3.4641 -0.5 0.0 0
M  V30 7 C 4.5642 0.9122 0.0 0
M  V30 8 C 3.4641 -1.5 0.0 0
M  V30 9 C 3.4641 0.5 0.0 0
M  V30 10 C 2.598 0.0 0.0 0
M  V30 11 C 3.4641 1.5 0.0 0
M  V30 12 C 2.598 -2.0 0.0 0
M  V30 13 C 4.3301 -1.9999 0.0 0
M  V30 14 C 4.2165 0.9189 0.0 0
M  V30 15 C 2.598 0.9999 0.0 0
M  V30 16 C 1.732 -0.5 0.0 0 CFG=1
M  V30 17 C 2.598 -3.0 0.0 0
M  V30 18 C 4.3301 -2.9999 0.0 0
M  V30 19 C 4.3301 2.0 0.0 0
M  V30 20 C 2.598 1.9999 0.0 0
M  V30 21 N 0.866 0.0 0.0 0
M  V30 22 C 1.732 -1.5 0.0 0
M  V30 23 C 3.4641 -3.4999 0.0 0
M  V30 24 C 3.4641 2.5 0.0 0
M  V30 25 C 0.866 1.0 0.0 0
M  V30 26 C 0.0 -0.5 0.0 0
M  V30 END ATOM
M  V30 BEGIN BOND
M  V30 1 2 1 2
M  V30 2 1 2 3
M  V30 3 1 2 4
M  V30 4 1 5 3 CFG=3
M  V30 5 1 5 6
M  V30 6 1 5 7
M  V30 7 1 6 8
M  V30 8 1 6 9
M  V30 9 1 6 10
M  V30 10 1 7 11
M  V30 11 2 8 12
M  V30 12 1 8 13
M  V30 13 2 9 14
M  V30 14 1 9 15
M  V30 15 1 16 10
M  V30 16 1 12 17
M  V30 17 2 13 18
M  V30 18 1 14 19
M  V30 19 2 15 20
M  V30 20 1 16 21 CFG=3
M  V30 21 1 16 22
M  V30 22 2 17 23
M  V30 23 2 19 24
M  V30 24 1 21 25
M  V30 25 1 21 26
M  V30 26 1 18 23
M  V30 27 1 20 24
M  V30 END BOND
M  V30 BEGIN COLLECTION
M  V30 MDLV30/STERAC1 ATOMS=(2 5 16)
M  V30 END COLLECTION
M  V30 END CTAB
M  END
>  <Molecule Name>


>  <status>
DISCONTINUED

>  <cas>
1477-40-3

>  <name>
LEVOMETHADYL ACETATE

>  <ID>
1260

>  <Smiles>
CC[C@@H](C(C[C@H](C)N(C)C)(c1ccccc1)c1ccccc1)OC(C)=O

$$$$

Actelion Java MolfileCreator 2.0

  0  0  0  0  0  0              0 V3000
M  V30 BEGIN CTAB
M  V30 COUNTS 4 3 0 0 0
M  V30 BEGIN ATOM
M  V30 1 S 2.598 0.0 0.0 0
M  V30 2 C 1.732 -0.5 0.0 0
M  V30 3 C 0.866 0.0 0.0 0
M  V30 4 N 0.0 -0.5 0.0 0
M  V30 END ATOM
M  V30 BEGIN BOND
M  V30 1 1 1 2
M  V30 2 1 2 3
M  V30 3 1 3 4
M  V30 END BOND
M  V30 END CTAB
M  END
>  <Molecule Name>


>  <status>
-

>  <cas>
60-23-1

>  <name>
CYSTEAMINE

>  <ID>
1261

>  <Smiles>
NCCS

$$$$

Actelion Java MolfileCreator 2.0

  0  0  0  0  0  0              0 V3000
M  V30 BEGIN CTAB
M  V30 COUNTS 26 26 0 0 0
M  V30 BEGIN ATOM
M  V30 1 S 19.4855 -4.5 0.0 0
M  V30 2 O 17.9855 -4.5 0.0 0
M  V30 3 O 20.9855 -4.5 0.0 0
M  V30 4 N 19.4855 -3.0 0.0 0
M  V30 5 C 19.4855 -6.0 0.0 0
M  V30 6 C 18.1865 -2.25 0.0 0
M  V30 7 C 18.1865 -0.75 0.0 0
M  V30 8 C 16.8874 -3.0 0.0 0
M  V30 9 C 16.8874 0.0 0.0 0
M  V30 10 C 15.5884 -2.25 0.0 0
M  V30 11 C 15.5884 -0.75 0.0 0
M  V30 12 C 14.2894 0.0 0.0 0 CFG=1
M  V30 13 O 14.2894 1.5 0.0 0
M  V30 14 C 12.9903 -0.75 0.0 0
M  V30 15 C 11.6913 0.0 0.0 0
M  V30 16 C 10.3923 -0.75 0.0 0
M  V30 17 N 9.0932 0.0 0.0 0
M  V30 18 C 7.7942 -0.75 0.0 0
M  V30 19 C 9.0932 1.5 0.0 0
M  V30 20 C 6.4951 0.0 0.0 0
M  V30 21 C 7.7942 2.25 0.0 0
M  V30 22 C 5.1961 -0.75 0.0 0
M  V30 23 C 3.8971 0.0 0.0 0
M  V30 24 C 2.598 -0.75 0.0 0
M  V30 25 C 1.299 0.0 0.0 0
M  V30 26 C 0.0 -0.75 0.0 0
M  V30 END ATOM
M  V30 BEGIN BOND
M  V30 1 2 1 2
M  V30 2 2 1 3
M  V30 3 1 1 4
M  V30 4 1 1 5
M  V30 5 1 4 6
M  V30 6 2 6 7
M  V30 7 1 6 8
M  V30 8 1 7 9
M  V30 9 2 8 10
M  V30 10 2 9 11
M  V30 11 1 12 11
M  V30 12 1 12 13 CFG=3
M  V30 13 1 12 14
M  V30 14 1 14 15
M  V30 15 1 15 16
M  V30 16 1 16 17
M  V30 17 1 17 18
M  V30 18 1 17 19
M  V30 19 1 18 20
M  V30 20 1 19 21
M  V30 21 1 20 22
M  V30 22 1 22 23
M  V30 23 1 23 24
M  V30 24 1 24 25
M  V30 25 1 25 26
M  V30 26 1 10 11
M  V30 END BOND
M  V30 BEGIN COLLECTION
M  V30 MDLV30/STERAC1 ATOMS=(1 12)
M  V30 END COLLECTION
M  V30 END CTAB
M  END
>  <Molecule Name>


>  <status>
-

>  <cas>
122647-31-8

>  <name>
IBUTILIDE

>  <ID>
1262

>  <Smiles>
CCCCCCCN(CC)CCCC(c(cc1)ccc1NS(C)(=O)=O)O

$$$$

Actelion Java MolfileCreator 2.0

  0  0  0  0  0  0              0 V3000
M  V30 BEGIN CTAB
M  V30 COUNTS 26 26 0 0 0
M  V30 BEGIN ATOM
M  V30 1 S 19.4855 -4.5 0.0 0
M  V30 2 O 17.9855 -4.5 0.0 0
M  V30 3 O 20.9855 -4.5 0.0 0
M  V30 4 N 19.4855 -3.0 0.0 0
M  V30 5 C 19.4855 -6.0 0.0 0
M  V30 6 C 18.1865 -2.25 0.0 0
M  V30 7 C 18.1865 -0.75 0.0 0
M  V30 8 C 16.8874 -3.0 0.0 0
M  V30 9 C 16.8874 0.0 0.0 0
M  V30 10 C 15.5884 -2.25 0.0 0
M  V30 11 C 15.5884 -0.75 0.0 0
M  V30 12 C 14.2894 0.0 0.0 0 CFG=1
M  V30 13 O 14.2894 1.5 0.0 0
M  V30 14 C 12.9903 -0.75 0.0 0
M  V30 15 C 11.6913 0.0 0.0 0
M  V30 16 C 10.3923 -0.75 0.0 0
M  V30 17 N 9.0932 0.0 0.0 0
M  V30 18 C 7.7942 -0.75 0.0 0
M  V30 19 C 9.0932 1.5 0.0 0
M  V30 20 C 6.4951 0.0 0.0 0
M  V30 21 C 7.7942 2.25 0.0 0
M  V30 22 C 5.1961 -0.75 0.0 0
M  V30 23 C 3.8971 0.0 0.0 0
M  V30 24 C 2.598 -0.75 0.0 0
M  V30 25 C 1.299 0.0 0.0 0
M  V30 26 C 0.0 -0.75 0.0 0
M  V30 END ATOM
M  V30 BEGIN BOND
M  V30 1 2 1 2
M  V30 2 2 1 3
M  V30 3 1 1 4
M  V30 4 1 1 5
M  V30 5 1 4 6
M  V30 6 2 6 7
M  V30 7 1 6 8
M  V30 8 1 7 9
M  V30 9 2 8 10
M  V30 10 2 9 11
M  V30 11 1 12 11
M  V30 12 1 12 13 CFG=3
M  V30 13 1 12 14
M  V30 14 1 14 15
M  V30 15 1 15 16
M  V30 16 1 16 17
M  V30 17 1 17 18
M  V30 18 1 17 19
M  V30 19 1 18 20
M  V30 20 1 19 21
M  V30 21 1 20 22
M  V30 22 1 22 23
M  V30 23 1 23 24
M  V30 24 1 24 25
M  V30 25 1 25 26
M  V30 26 1 10 11
M  V30 END BOND
M  V30 BEGIN COLLECTION
M  V30 MDLV30/STERAC1 ATOMS=(1 12)
M  V30 END COLLECTION
M  V30 END CTAB
M  END
>  <Molecule Name>


>  <status>
-

>  <cas>
122647-31-8

>  <name>
IBUTILIDE

>  <ID>
1263

>  <Smiles>
CCCCCCCN(CC)CCCC(c(cc1)ccc1NS(C)(=O)=O)O

$$$$

Actelion Java MolfileCreator 2.0

  0  0  0  0  0  0              0 V3000
M  V30 BEGIN CTAB
M  V30 COUNTS 29 31 0 0 0
M  V30 BEGIN ATOM
M  V30 1 Cl 2.598 -2.9999 0.0 0
M  V30 2 C 2.598 -1.9999 0.0 0
M  V30 3 C 1.732 -1.4999 0.0 0
M  V30 4 C 1.732 -0.5 0.0 0
M  V30 5 C 2.598 0.0 0.0 0
M  V30 6 C 0.866 0.0 0.0 0
M  V30 7 C 2.598 1.0 0.0 0
M  V30 8 C 3.4641 -0.4999 0.0 0
M  V30 9 C 0.866 1.0 0.0 0
M  V30 10 C 0.0 -0.5 0.0 0
M  V30 11 C 3.4641 1.5 0.0 0
M  V30 12 C 4.3301 0.0 0.0 0
M  V30 13 C 1.732 1.5 0.0 0
M  V30 14 C 0.0 1.4999 0.0 0
M  V30 15 C -0.866 0.0 0.0 0
M  V30 16 C 0.0 -1.4999 0.0 0
M  V30 17 C 4.3301 1.0 0.0 0
M  V30 18 C 1.732 2.5 0.0 0
M  V30 19 C 0.0 2.5 0.0 0
M  V30 20 C -1.732 -0.4999 0.0 0
M  V30 21 C -0.866 -1.9999 0.0 0
M  V30 22 C 0.866 3.0 0.0 0
M  V30 23 C -1.732 -1.4999 0.0 0
M  V30 24 O 0.866 4.0 0.0 0
M  V30 25 C 1.732 4.5 0.0 0
M  V30 26 C 1.732 5.5 0.0 0
M  V30 27 N 2.598 6.0 0.0 0
M  V30 28 C 3.4641 5.5 0.0 0
M  V30 29 C 2.598 7.0 0.0 0
M  V30 END ATOM
M  V30 BEGIN BOND
M  V30 1 1 1 2
M  V30 2 1 2 3
M  V30 3 1 3 4
M  V30 4 1 4 5
M  V30 5 2 4 6
M  V30 6 2 5 7
M  V30 7 1 5 8
M  V30 8 1 6 9
M  V30 9 1 6 10
M  V30 10 1 7 11
M  V30 11 2 8 12
M  V30 12 2 9 13
M  V30 13 1 9 14
M  V30 14 2 10 15
M  V30 15 1 10 16
M  V30 16 2 11 17
M  V30 17 1 13 18
M  V30 18 2 14 19
M  V30 19 1 15 20
M  V30 20 2 16 21
M  V30 21 2 18 22
M  V30 22 2 20 23
M  V30 23 1 22 24
M  V30 24 1 24 25
M  V30 25 1 25 26
M  V30 26 1 26 27
M  V30 27 1 27 28
M  V30 28 1 27 29
M  V30 29 1 12 17
M  V30 30 1 19 22
M  V30 31 1 21 23
M  V30 END BOND
M  V30 END CTAB
M  END
>  <Molecule Name>


>  <status>
-

>  <cas>
89778-26-7

>  <name>
TOREMIFENE

>  <ID>
1264

>  <Smiles>
CN(C)CCOc(cc1)ccc1/C(/c1ccccc1)=C(/CCCl)\c1ccccc1

$$$$

Actelion Java MolfileCreator 2.0

  0  0  0  0  0  0              0 V3000
M  V30 BEGIN CTAB
M  V30 COUNTS 20 21 0 0 0
M  V30 BEGIN ATOM
M  V30 1 O 2.598 3.75 0.0 0
M  V30 2 C 2.598 2.25 0.0 0
M  V30 3 N 1.299 1.5 0.0 0
M  V30 4 C 3.8971 1.5 0.0 0 CFG=1
M  V30 5 C 0.0 2.25 0.0 0
M  V30 6 N 5.1961 2.2499 0.0 0
M  V30 7 C 3.8971 0.0 0.0 0
M  V30 8 C -1.299 1.5 0.0 0
M  V30 9 C 0.0 3.75 0.0 0
M  V30 10 C 6.4951 1.4999 0.0 0
M  V30 11 C 5.1961 3.7499 0.0 0
M  V30 12 C 5.1961 -0.75 0.0 0
M  V30 13 C -2.598 2.25 0.0 0
M  V30 14 C -1.299 0.0 0.0 0
M  V30 15 C -1.299 4.5 0.0 0
M  V30 16 C 1.299 4.5 0.0 0
M  V30 17 C 6.4951 0.0 0.0 0
M  V30 18 C 3.8971 4.5 0.0 0
M  V30 19 C -2.598 3.75 0.0 0
M  V30 20 C 3.8971 6.0 0.0 0
M  V30 END ATOM
M  V30 BEGIN BOND
M  V30 1 2 1 2
M  V30 2 1 2 3
M  V30 3 1 4 2 CFG=1
M  V30 4 1 3 5
M  V30 5 1 4 6
M  V30 6 1 4 7
M  V30 7 2 5 8
M  V30 8 1 5 9
M  V30 9 1 6 10
M  V30 10 1 6 11
M  V30 11 1 7 12
M  V30 12 1 8 13
M  V30 13 1 8 14
M  V30 14 2 9 15
M  V30 15 1 9 16
M  V30 16 1 10 17
M  V30 17 1 11 18
M  V30 18 2 13 19
M  V30 19 1 18 20
M  V30 20 1 12 17
M  V30 21 1 15 19
M  V30 END BOND
M  V30 BEGIN COLLECTION
M  V30 MDLV30/STERAC1 ATOMS=(1 4)
M  V30 END COLLECTION
M  V30 END CTAB
M  END
>  <Molecule Name>


>  <status>
-

>  <cas>
84057-95-4

>  <name>
ROPIVACAINE

>  <ID>
1265

>  <Smiles>
CCCN(CCCC1)C1C(Nc1c(C)cccc1C)=O

$$$$

Actelion Java MolfileCreator 2.0

  0  0  0  0  0  0              0 V3000
M  V30 BEGIN CTAB
M  V30 COUNTS 26 27 0 0 0
M  V30 BEGIN ATOM
M  V30 1 O 8.6602 -6.5 0.0 0
M  V30 2 C 9.5262 -6.0 0.0 0
M  V30 3 O 10.3923 -6.5 0.0 0 CHG=-1
M  V30 4 C 9.5262 -5.0 0.0 0
M  V30 5 C 10.3923 -4.5 0.0 0
M  V30 6 C 8.6602 -4.5 0.0 0
M  V30 7 O 11.2583 -5.0 0.0 0
M  V30 8 C 10.3923 -3.5 0.0 0
M  V30 9 C 8.6602 -3.5 0.0 0
M  V30 10 C 9.5262 -3.0 0.0 0
M  V30 11 N 7.7942 -3.0 0.0 0
M  V30 12 N 7.7942 -2.0 0.0 0
M  V30 13 C 6.9282 -1.5 0.0 0
M  V30 14 C 6.9282 -0.5 0.0 0
M  V30 15 C 6.0621 -2.0 0.0 0
M  V30 16 C 6.0621 0.0 0.0 0
M  V30 17 C 5.1961 -1.5 0.0 0
M  V30 18 C 5.1961 -0.5 0.0 0
M  V30 19 C 4.3301 0.0 0.0 0
M  V30 20 O 4.3301 1.0 0.0 0
M  V30 21 N 3.4641 -0.5 0.0 0
M  V30 22 C 2.598 0.0 0.0 0
M  V30 23 C 1.732 -0.5 0.0 0
M  V30 24 C 0.866 0.0 0.0 0
M  V30 25 O 0.866 1.0 0.0 0
M  V30 26 O 0.0 -0.5 0.0 0 CHG=-1
M  V30 END ATOM
M  V30 BEGIN BOND
M  V30 1 2 1 2
M  V30 2 1 2 3
M  V30 3 1 2 4
M  V30 4 2 4 5
M  V30 5 1 4 6
M  V30 6 1 5 7
M  V30 7 1 5 8
M  V30 8 2 6 9
M  V30 9 2 8 10
M  V30 10 1 9 11
M  V30 11 2 11 12
M  V30 12 1 12 13
M  V30 13 2 13 14
M  V30 14 1 13 15
M  V30 15 1 14 16
M  V30 16 2 15 17
M  V30 17 2 16 18
M  V30 18 1 18 19
M  V30 19 2 19 20
M  V30 20 1 19 21
M  V30 21 1 21 22
M  V30 22 1 22 23
M  V30 23 1 23 24
M  V30 24 2 24 25
M  V30 25 1 24 26
M  V30 26 1 9 10
M  V30 27 1 17 18
M  V30 END BOND
M  V30 END CTAB
M  END
>  <Molecule Name>


>  <status>
-

>  <cas>
80573-04-2

>  <name>
BALSALAZIDE

>  <ID>
1266

>  <Smiles>
[O-]C(CCNC(c(cc1)ccc1/N=N/c(cc1)cc(C([O-])=O)c1O)=O)=O

$$$$

Actelion Java MolfileCreator 2.0

  0  0  0  0  0  0              0 V3000
M  V30 BEGIN CTAB
M  V30 COUNTS 24 28 0 0 0
M  V30 BEGIN ATOM
M  V30 1 O 7.0878 1.3304 0.0 0
M  V30 2 C 6.0944 1.2156 0.0 0
M  V30 3 C 5.4984 2.0186 0.0 0 CFG=2
M  V30 4 C 5.6971 0.298 0.0 0
M  V30 5 C 4.4885 1.775 0.0 0
M  V30 6 C 3.7103 2.248 0.0 0
M  V30 7 N 4.7037 0.1833 0.0 0
M  V30 8 C 4.1903 1.0864 0.0 0 CFG=2
M  V30 9 C 3.3129 1.3304 0.0 0 CFG=1
M  V30 10 C 3.4641 -0.5 0.0 0
M  V30 11 C 2.598 0.9999 0.0 0
M  V30 12 C 2.598 0.0 0.0 0 CFG=2
M  V30 13 O 1.732 -0.5 0.0 0
M  V30 14 C 0.866 0.0 0.0 0
M  V30 15 O 0.866 1.0 0.0 0
M  V30 16 C 0.0 -0.5 0.0 0
M  V30 17 C -0.9135 -0.0932 0.0 0
M  V30 18 C -0.1045 -1.4945 0.0 0
M  V30 19 C -1.5826 -0.8364 0.0 0
M  V30 20 C -1.2225 0.8577 0.0 0
M  V30 21 N -1.0826 -1.7024 0.0 0
M  V30 22 C -2.5608 -0.6284 0.0 0
M  V30 23 C -2.2007 1.0657 0.0 0
M  V30 24 C -2.8698 0.3225 0.0 0
M  V30 END ATOM
M  V30 BEGIN BOND
M  V30 1 2 1 2
M  V30 2 1 3 2
M  V30 3 1 2 4
M  V30 4 1 3 5 CFG=1
M  V30 5 1 3 6
M  V30 6 1 4 7
M  V30 7 1 8 5
M  V30 8 1 9 6
M  V30 9 1 8 10 CFG=3
M  V30 10 1 9 11
M  V30 11 1 12 10
M  V30 12 1 12 13 CFG=1
M  V30 13 1 13 14
M  V30 14 2 14 15
M  V30 15 1 14 16
M  V30 16 1 16 17
M  V30 17 2 16 18
M  V30 18 2 17 19
M  V30 19 1 17 20
M  V30 20 1 18 21
M  V30 21 1 19 22
M  V30 22 2 20 23
M  V30 23 2 22 24
M  V30 24 1 7 8
M  V30 25 1 9 7 CFG=1
M  V30 26 1 11 12
M  V30 27 1 19 21
M  V30 28 1 23 24
M  V30 END BOND
M  V30 BEGIN COLLECTION
M  V30 MDLV30/STEABS ATOMS=(4 3 8 9 12)
M  V30 END COLLECTION
M  V30 END CTAB
M  END
>  <Molecule Name>


>  <status>
-

>  <cas>
115956-12-2

>  <name>
DOLASETRON

>  <ID>
1267

>  <Smiles>
O=C(c1c[nH]c2c1cccc2)O[C@@H]1C[C@H](C[C@H](C2)C(C3)=O)N3[C@H]2C1

$$$$

Actelion Java MolfileCreator 2.0

  0  0  0  0  0  0              0 V3000
M  V30 BEGIN CTAB
M  V30 COUNTS 49 53 0 0 0
M  V30 BEGIN ATOM
M  V30 1 O 7.7942 -6.75 0.0 0
M  V30 2 C 7.7942 -5.25 0.0 0
M  V30 3 N 6.4951 -4.5 0.0 0
M  V30 4 C 9.0932 -4.5 0.0 0
M  V30 5 C 6.4951 -2.9999 0.0 0 CFG=2
M  V30 6 N 9.0932 -3.0 0.0 0
M  V30 7 C 10.3923 -5.2499 0.0 0
M  V30 8 C 5.1961 -2.25 0.0 0
M  V30 9 C 7.7942 -2.2499 0.0 0
M  V30 10 C 10.3923 -2.25 0.0 0
M  V30 11 C 11.6913 -4.4999 0.0 0
M  V30 12 O 3.8971 -3.0 0.0 0
M  V30 13 N 5.1961 -0.75 0.0 0
M  V30 14 C 7.7942 -0.7499 0.0 0
M  V30 15 C 11.6913 -2.9999 0.0 0
M  V30 16 C 10.3923 -0.75 0.0 0
M  V30 17 C 3.8971 0.0 0.0 0 CFG=2
M  V30 18 O 6.4951 0.0 0.0 0
M  V30 19 N 9.0932 0.0 0.0 0
M  V30 20 C 12.9903 -2.2499 0.0 0
M  V30 21 C 11.6913 0.0 0.0 0
M  V30 22 C 2.598 -0.75 0.0 0 CFG=2
M  V30 23 C 3.8971 1.5 0.0 0
M  V30 24 C 12.9903 -0.75 0.0 0
M  V30 25 O 2.598 -2.25 0.0 0
M  V30 26 C 1.299 0.0 0.0 0
M  V30 27 C 5.1961 2.25 0.0 0
M  V30 28 N 1.299 1.4999 0.0 0
M  V30 29 C 5.1961 3.75 0.0 0
M  V30 30 C 6.4951 1.5 0.0 0
M  V30 31 C 0.0 2.2499 0.0 0 CFG=2
M  V30 32 C 2.598 2.25 0.0 0
M  V30 33 C 6.4951 4.5 0.0 0
M  V30 34 C 7.7942 2.25 0.0 0
M  V30 35 C -1.299 1.4999 0.0 0
M  V30 36 C 0.0 3.7499 0.0 0
M  V30 37 C 2.598 3.75 0.0 0 CFG=2
M  V30 38 C 7.7942 3.75 0.0 0
M  V30 39 O -2.598 2.2499 0.0 0
M  V30 40 N -1.299 0.0 0.0 0
M  V30 41 C 1.299 4.5 0.0 0 CFG=1
M  V30 42 C 3.8971 4.5 0.0 0
M  V30 43 C -2.598 -0.75 0.0 0
M  V30 44 C 1.299 5.9999 0.0 0
M  V30 45 C 3.8971 6.0 0.0 0
M  V30 46 C -3.348 0.549 0.0 0
M  V30 47 C -3.8971 -1.5 0.0 0
M  V30 48 C -1.848 -2.049 0.0 0
M  V30 49 C 2.598 6.75 0.0 0
M  V30 END ATOM
M  V30 BEGIN BOND
M  V30 1 2 1 2
M  V30 2 1 2 3
M  V30 3 1 2 4
M  V30 4 1 5 3 CFG=3
M  V30 5 2 4 6
M  V30 6 1 4 7
M  V30 7 1 5 8
M  V30 8 1 5 9
M  V30 9 1 6 10
M  V30 10 2 7 11
M  V30 11 2 8 12
M  V30 12 1 8 13
M  V30 13 1 9 14
M  V30 14 1 10 15
M  V30 15 2 10 16
M  V30 16 1 17 13 CFG=3
M  V30 17 2 14 18
M  V30 18 1 14 19
M  V30 19 2 15 20
M  V30 20 1 16 21
M  V30 21 1 22 17
M  V30 22 1 17 23
M  V30 23 1 20 24
M  V30 24 1 22 25 CFG=3
M  V30 25 1 22 26
M  V30 26 1 23 27
M  V30 27 1 26 28
M  V30 28 2 27 29
M  V30 29 1 27 30
M  V30 30 1 31 28
M  V30 31 1 28 32
M  V30 32 1 29 33
M  V30 33 2 30 34
M  V30 34 1 31 35 CFG=3
M  V30 35 1 31 36
M  V30 36 1 37 32 CFG=3
M  V30 37 2 33 38
M  V30 38 2 35 39
M  V30 39 1 35 40
M  V30 40 1 41 36 CFG=3
M  V30 41 1 37 42
M  V30 42 1 40 43
M  V30 43 1 41 44
M  V30 44 1 42 45
M  V30 45 1 43 46
M  V30 46 1 43 47
M  V30 47 1 43 48
M  V30 48 1 44 49
M  V30 49 1 11 15
M  V30 50 2 21 24
M  V30 51 1 34 38
M  V30 52 1 37 41
M  V30 53 1 45 49
M  V30 END BOND
M  V30 BEGIN COLLECTION
M  V30 MDLV30/STERAC1 ATOMS=(6 5 17 22 31 37 41)
M  V30 END COLLECTION
M  V30 END CTAB
M  END
>  <Molecule Name>


>  <status>
DISCONTINUED

>  <cas>
127779-20-8

>  <name>
SAQUINAVIR

>  <ID>
1268

>  <Smiles>
CC(C)(C)NC([C@H]1N(C[C@H]([C@H](Cc2ccccc2)NC([C@H](CC(N)=O)NC(c2nc3ccccc3cc2)=O)=O)O)C[C@@H](CCCC2)[C@@H]2C1)=O

$$$$

Actelion Java MolfileCreator 2.0

  0  0  0  0  0  0              0 V3000
M  V30 BEGIN CTAB
M  V30 COUNTS 27 30 0 0 0
M  V30 BEGIN ATOM
M  V30 1 S 14.912 -3.9934 0.0 0
M  V30 2 C 14.162 -5.2925 0.0 0
M  V30 3 C 14.364 -2.5971 0.0 0
M  V30 4 C 12.6788 -5.516 0.0 0
M  V30 5 C 15.0973 -6.4652 0.0 0
M  V30 6 C 12.9307 -2.155 0.0 0
M  V30 7 C 15.4636 -1.5768 0.0 0
M  V30 8 N 11.5792 -4.4958 0.0 0
M  V30 9 C 12.1308 -6.9123 0.0 0
M  V30 10 C 14.5492 -7.8615 0.0 0
M  V30 11 C 11.6913 -3.0 0.0 0
M  V30 12 C 12.5969 -0.6926 0.0 0
M  V30 13 C 15.1298 -0.1145 0.0 0
M  V30 14 C 13.066 -8.0851 0.0 0
M  V30 15 N 10.3923 -2.25 0.0 0
M  V30 16 C 13.6964 0.3276 0.0 0
M  V30 17 C 10.3923 -0.75 0.0 0
M  V30 18 C 9.0932 -3.0 0.0 0
M  V30 19 C 9.0932 0.0 0.0 0
M  V30 20 C 7.7942 -2.25 0.0 0
M  V30 21 N 7.7942 -0.75 0.0 0
M  V30 22 C 6.4951 0.0 0.0 0
M  V30 23 C 5.1961 -0.75 0.0 0
M  V30 24 O 3.8971 0.0 0.0 0
M  V30 25 C 2.598 -0.75 0.0 0
M  V30 26 C 1.299 0.0 0.0 0
M  V30 27 O 0.0 -0.75 0.0 0
M  V30 END ATOM
M  V30 BEGIN BOND
M  V30 1 1 1 2
M  V30 2 1 1 3
M  V30 3 2 2 4
M  V30 4 1 2 5
M  V30 5 2 3 6
M  V30 6 1 3 7
M  V30 7 1 4 8
M  V30 8 1 4 9
M  V30 9 2 5 10
M  V30 10 1 6 11
M  V30 11 1 6 12
M  V30 12 2 7 13
M  V30 13 2 9 14
M  V30 14 1 11 15
M  V30 15 2 12 16
M  V30 16 1 15 17
M  V30 17 1 15 18
M  V30 18 1 17 19
M  V30 19 1 18 20
M  V30 20 1 19 21
M  V30 21 1 21 22
M  V30 22 1 22 23
M  V30 23 1 23 24
M  V30 24 1 24 25
M  V30 25 1 25 26
M  V30 26 1 26 27
M  V30 27 2 8 11
M  V30 28 1 10 14
M  V30 29 1 13 16
M  V30 30 1 20 21
M  V30 END BOND
M  V30 END CTAB
M  END
>  <Molecule Name>


>  <status>
-

>  <cas>
111974-69-7

>  <name>
QUETIAPINE

>  <ID>
1269

>  <Smiles>
OCCOCCN(CC1)CCN1C1=Nc(cccc2)c2Sc2c1cccc2

$$$$

Actelion Java MolfileCreator 2.0

  0  0  0  0  0  0              0 V3000
M  V30 BEGIN CTAB
M  V30 COUNTS 14 15 0 0 0
M  V30 BEGIN ATOM
M  V30 1 S 4.538 -2.9781 0.0 0
M  V30 2 C 5.5325 -3.0826 0.0 0
M  V30 3 C 4.3301 -1.9999 0.0 0
M  V30 4 N 5.9392 -2.1691 0.0 0
M  V30 5 N 6.0325 -3.9487 0.0 0
M  V30 6 C 5.1961 -1.4999 0.0 0
M  V30 7 C 3.4641 -1.5 0.0 0
M  V30 8 C 5.1961 -0.4999 0.0 0
M  V30 9 C 3.4641 -0.5 0.0 0 CFG=2
M  V30 10 C 4.3301 0.0 0.0 0
M  V30 11 N 2.598 0.0 0.0 0
M  V30 12 C 1.732 -0.5 0.0 0
M  V30 13 C 0.866 0.0 0.0 0
M  V30 14 C 0.0 -0.5 0.0 0
M  V30 END ATOM
M  V30 BEGIN BOND
M  V30 1 1 1 2
M  V30 2 1 1 3
M  V30 3 2 2 4
M  V30 4 1 2 5
M  V30 5 2 3 6
M  V30 6 1 3 7
M  V30 7 1 6 8
M  V30 8 1 9 7
M  V30 9 1 8 10
M  V30 10 1 9 11 CFG=1
M  V30 11 1 11 12
M  V30 12 1 12 13
M  V30 13 1 13 14
M  V30 14 1 4 6
M  V30 15 1 9 10
M  V30 END BOND
M  V30 BEGIN COLLECTION
M  V30 MDLV30/STERAC1 ATOMS=(1 9)
M  V30 END COLLECTION
M  V30 END CTAB
M  END
>  <Molecule Name>


>  <status>
-

>  <cas>
104632-26-0

>  <name>
PRAMIPEXOLE

>  <ID>
1270

>  <Smiles>
CCCNC(CC1)Cc2c1nc(N)s2

$$$$

Actelion Java MolfileCreator 2.0

  0  0  0  0  0  0              0 V3000
M  V30 BEGIN CTAB
M  V30 COUNTS 45 49 0 0 0
M  V30 BEGIN ATOM
M  V30 1 O 6.0621 -2.0 0.0 0
M  V30 2 C 6.9282 -1.5 0.0 0
M  V30 3 N 7.7942 -2.0 0.0 0
M  V30 4 C 6.9282 -0.5 0.0 0 CFG=1
M  V30 5 C 7.7942 -3.0 0.0 0
M  V30 6 N 6.0621 0.0 0.0 0
M  V30 7 C 7.7942 0.0 0.0 0
M  V30 8 C 6.7942 -3.0 0.0 0
M  V30 9 C 7.7942 -4.0 0.0 0
M  V30 10 C 8.7942 -3.0 0.0 0
M  V30 11 C 6.0621 0.9999 0.0 0
M  V30 12 C 5.1961 -0.5 0.0 0
M  V30 13 N 7.7942 0.9999 0.0 0
M  V30 14 C 6.9282 1.4999 0.0 0
M  V30 15 C 4.3301 0.0 0.0 0 CFG=1
M  V30 16 C 8.6602 1.4999 0.0 0
M  V30 17 O 4.3301 1.0 0.0 0
M  V30 18 C 3.4641 -0.5 0.0 0
M  V30 19 C 9.5262 0.9999 0.0 0
M  V30 20 C 2.598 0.0 0.0 0 CFG=2
M  V30 21 C 10.3923 1.4999 0.0 0
M  V30 22 C 9.5262 0.0 0.0 0
M  V30 23 C 1.732 -0.5 0.0 0
M  V30 24 C 2.598 1.0 0.0 0
M  V30 25 N 11.2583 0.9999 0.0 0
M  V30 26 C 10.3923 -0.5 0.0 0
M  V30 27 O 1.732 -1.5 0.0 0
M  V30 28 N 0.866 0.0 0.0 0
M  V30 29 C 1.732 1.5 0.0 0
M  V30 30 C 11.2583 0.0 0.0 0
M  V30 31 C 0.0 -0.5 0.0 0 CFG=1
M  V30 32 C 1.732 2.5 0.0 0
M  V30 33 C 0.866 1.0 0.0 0
M  V30 34 C -0.9135 -0.0932 0.0 0
M  V30 35 C -0.1045 -1.4945 0.0 0 CFG=2
M  V30 36 C 0.866 3.0 0.0 0
M  V30 37 C 0.0 1.5 0.0 0
M  V30 38 C -1.5826 -0.8364 0.0 0
M  V30 39 C -1.2225 0.8577 0.0 0
M  V30 40 O 0.6386 -2.1636 0.0 0
M  V30 41 C -1.0826 -1.7024 0.0 0
M  V30 42 C 0.0 2.5 0.0 0
M  V30 43 C -2.5608 -0.6284 0.0 0
M  V30 44 C -2.2007 1.0657 0.0 0
M  V30 45 C -2.8698 0.3225 0.0 0
M  V30 END ATOM
M  V30 BEGIN BOND
M  V30 1 2 1 2
M  V30 2 1 2 3
M  V30 3 1 4 2 CFG=1
M  V30 4 1 3 5
M  V30 5 1 4 6
M  V30 6 1 4 7
M  V30 7 1 5 8
M  V30 8 1 5 9
M  V30 9 1 5 10
M  V30 10 1 6 11
M  V30 11 1 6 12
M  V30 12 1 7 13
M  V30 13 1 11 14
M  V30 14 1 15 12
M  V30 15 1 13 16
M  V30 16 1 15 17 CFG=3
M  V30 17 1 15 18
M  V30 18 1 16 19
M  V30 19 1 20 18 CFG=3
M  V30 20 2 19 21
M  V30 21 1 19 22
M  V30 22 1 20 23
M  V30 23 1 20 24
M  V30 24 1 21 25
M  V30 25 2 22 26
M  V30 26 2 23 27
M  V30 27 1 23 28
M  V30 28 1 24 29
M  V30 29 2 25 30
M  V30 30 1 31 28 CFG=3
M  V30 31 2 29 32
M  V30 32 1 29 33
M  V30 33 1 31 34
M  V30 34 1 35 31
M  V30 35 1 32 36
M  V30 36 2 33 37
M  V30 37 2 34 38
M  V30 38 1 34 39
M  V30 39 1 35 40 CFG=3
M  V30 40 1 35 41
M  V30 41 2 36 42
M  V30 42 1 38 43
M  V30 43 2 39 44
M  V30 44 2 43 45
M  V30 45 1 13 14
M  V30 46 1 26 30
M  V30 47 1 37 42
M  V30 48 1 38 41
M  V30 49 1 44 45
M  V30 END BOND
M  V30 BEGIN COLLECTION
M  V30 MDLV30/STERAC1 ATOMS=(5 4 15 20 31 35)
M  V30 END COLLECTION
M  V30 END CTAB
M  END
>  <Molecule Name>


>  <status>
DISCONTINUED

>  <cas>
150378-17-9

>  <name>
INDINAVIR

>  <ID>
1271

>  <Smiles>
CC(C)(C)NC([C@H]1N(C[C@H](C[C@@H](Cc2ccccc2)C(N[C@H]([C@@H](C2)O)c3c2cccc3)=O)O)CCN(Cc2cnccc2)C1)=O

$$$$

Actelion Java MolfileCreator 2.0

  0  0  0  0  0  0              0 V3000
M  V30 BEGIN CTAB
M  V30 COUNTS 32 35 0 0 0
M  V30 BEGIN ATOM
M  V30 1 S -1.9845 -5.3364 0.0 0
M  V30 2 O -1.1185 -4.8364 0.0 0
M  V30 3 O -2.8506 -5.8364 0.0 0
M  V30 4 N -1.4845 -6.2024 0.0 0
M  V30 5 C -2.4845 -4.4703 0.0 0
M  V30 6 C -0.4845 -6.2024 0.0 0
M  V30 7 C 0.0154 -5.3364 0.0 0
M  V30 8 C 0.0154 -7.0684 0.0 0
M  V30 9 C 1.0154 -5.3364 0.0 0
M  V30 10 C 1.0154 -7.0684 0.0 0
M  V30 11 C 1.5154 -6.2024 0.0 0
M  V30 12 C 1.6845 -4.5932 0.0 0
M  V30 13 N 2.4935 -5.9945 0.0 0
M  V30 14 C 2.598 -5.0 0.0 0
M  V30 15 C 3.4641 -4.4999 0.0 0
M  V30 16 O 4.3301 -4.9999 0.0 0
M  V30 17 N 3.4641 -3.5 0.0 0
M  V30 18 C 4.3301 -3.0 0.0 0
M  V30 19 C 2.598 -2.9999 0.0 0
M  V30 20 C 4.3301 -2.0 0.0 0
M  V30 21 C 2.598 -1.9999 0.0 0
M  V30 22 N 3.4641 -1.5 0.0 0
M  V30 23 C 3.4641 -0.4999 0.0 0
M  V30 24 N 4.3301 0.0 0.0 0
M  V30 25 C 2.598 0.0 0.0 0
M  V30 26 C 4.3301 1.0 0.0 0
M  V30 27 N 1.732 -0.5 0.0 0
M  V30 28 C 2.598 1.0 0.0 0
M  V30 29 C 3.4641 1.5 0.0 0
M  V30 30 C 0.866 0.0 0.0 0
M  V30 31 C 0.866 1.0 0.0 0
M  V30 32 C 0.0 -0.5 0.0 0
M  V30 END ATOM
M  V30 BEGIN BOND
M  V30 1 2 1 2
M  V30 2 2 1 3
M  V30 3 1 1 4
M  V30 4 1 1 5
M  V30 5 1 4 6
M  V30 6 2 6 7
M  V30 7 1 6 8
M  V30 8 1 7 9
M  V30 9 2 8 10
M  V30 10 2 9 11
M  V30 11 1 9 12
M  V30 12 1 11 13
M  V30 13 2 12 14
M  V30 14 1 14 15
M  V30 15 2 15 16
M  V30 16 1 15 17
M  V30 17 1 17 18
M  V30 18 1 17 19
M  V30 19 1 18 20
M  V30 20 1 19 21
M  V30 21 1 20 22
M  V30 22 1 22 23
M  V30 23 2 23 24
M  V30 24 1 23 25
M  V30 25 1 24 26
M  V30 26 1 25 27
M  V30 27 2 25 28
M  V30 28 2 26 29
M  V30 29 1 27 30
M  V30 30 1 30 31
M  V30 31 1 30 32
M  V30 32 1 10 11
M  V30 33 1 13 14
M  V30 34 1 21 22
M  V30 35 1 28 29
M  V30 END BOND
M  V30 END CTAB
M  END
>  <Molecule Name>


>  <status>
DISCONTINUED

>  <cas>
136817-59-9

>  <name>
DELAVIRDINE

>  <ID>
1272

>  <Smiles>
CC(C)Nc1cccnc1N(CC1)CCN1C(c1cc(cc(cc2)NS(C)(=O)=O)c2[nH]1)=O

$$$$

Actelion Java MolfileCreator 2.0

  0  0  0  0  0  0              0 V3000
M  V30 BEGIN CTAB
M  V30 COUNTS 22 24 0 0 0
M  V30 BEGIN ATOM
M  V30 1 O 2.598 0.0 0.0 0
M  V30 2 C 1.732 -0.5 0.0 0
M  V30 3 C 3.4641 -0.5 0.0 0
M  V30 4 C 0.866 0.0 0.0 0
M  V30 5 C 4.3301 0.0 0.0 0
M  V30 6 N 0.0 -0.5 0.0 0
M  V30 7 C -0.9135 -0.0932 0.0 0
M  V30 8 C -0.1045 -1.4945 0.0 0
M  V30 9 N -1.5826 -0.8364 0.0 0
M  V30 10 N -1.1214 0.8848 0.0 0
M  V30 11 C -1.0826 -1.7024 0.0 0
M  V30 12 C 0.5646 -2.2376 0.0 0
M  V30 13 C -0.3303 1.4966 0.0 0
M  V30 14 C -2.0929 1.1219 0.0 0
M  V30 15 C -1.3916 -2.6534 0.0 0
M  V30 16 C 0.2555 -3.1887 0.0 0
M  V30 17 C -0.3154 2.4964 0.0 0
M  V30 18 C -2.5133 2.0293 0.0 0
M  V30 19 C -0.7225 -3.3966 0.0 0
M  V30 20 N -1.0878 3.1316 0.0 0
M  V30 21 C -2.0659 2.9237 0.0 0
M  V30 22 C -0.8507 4.1031 0.0 0
M  V30 END ATOM
M  V30 BEGIN BOND
M  V30 1 1 1 2
M  V30 2 1 1 3
M  V30 3 1 2 4
M  V30 4 1 3 5
M  V30 5 1 4 6
M  V30 6 1 6 7
M  V30 7 1 6 8
M  V30 8 2 7 9
M  V30 9 1 7 10
M  V30 10 2 8 11
M  V30 11 1 8 12
M  V30 12 1 10 13
M  V30 13 1 10 14
M  V30 14 1 11 15
M  V30 15 2 12 16
M  V30 16 1 13 17
M  V30 17 1 14 18
M  V30 18 2 15 19
M  V30 19 1 17 20
M  V30 20 1 18 21
M  V30 21 1 20 22
M  V30 22 1 9 11
M  V30 23 1 16 19
M  V30 24 1 20 21
M  V30 END BOND
M  V30 END CTAB
M  END
>  <Molecule Name>


>  <status>
DISCONTINUED

>  <cas>
87233-61-2

>  <name>
EMEDASTINE

>  <ID>
1273

>  <Smiles>
CCOCCn1c(N2CCN(C)CCC2)nc2c1cccc2

$$$$

Actelion Java MolfileCreator 2.0

  0  0  0  0  0  0              0 V3000
M  V30 BEGIN CTAB
M  V30 COUNTS 17 17 0 0 0
M  V30 BEGIN ATOM
M  V30 1 Cl 5.1961 1.5 0.0 0
M  V30 2 C 4.3301 1.0 0.0 0
M  V30 3 C 3.4641 1.5 0.0 0
M  V30 4 C 4.3301 0.0 0.0 0
M  V30 5 C 2.598 0.9999 0.0 0
M  V30 6 C 3.4641 -0.4999 0.0 0
M  V30 7 C 2.598 0.0 0.0 0
M  V30 8 S 1.732 -0.5 0.0 0
M  V30 9 C 0.866 0.0 0.0 0
M  V30 10 P 0.866 1.0 0.0 0
M  V30 11 P 0.0 -0.5 0.0 0
M  V30 12 O 1.866 1.0 0.0 0
M  V30 13 O 0.866 2.0 0.0 0 CHG=-1
M  V30 14 O -0.1339 1.0 0.0 0 CHG=-1
M  V30 15 O -0.4999 0.366 0.0 0
M  V30 16 O -0.866 -0.9999 0.0 0 CHG=-1
M  V30 17 O 0.4999 -1.366 0.0 0 CHG=-1
M  V30 END ATOM
M  V30 BEGIN BOND
M  V30 1 1 1 2
M  V30 2 2 2 3
M  V30 3 1 2 4
M  V30 4 1 3 5
M  V30 5 2 4 6
M  V30 6 2 5 7
M  V30 7 1 7 8
M  V30 8 1 8 9
M  V30 9 1 9 10
M  V30 10 1 9 11
M  V30 11 2 10 12
M  V30 12 1 10 13
M  V30 13 1 10 14
M  V30 14 2 11 15
M  V30 15 1 11 16
M  V30 16 1 11 17
M  V30 17 1 6 7
M  V30 END BOND
M  V30 END CTAB
M  END
>  <Molecule Name>


>  <status>
DISCONTINUED

>  <cas>
89987-06-4

>  <name>
TILUDRONATE

>  <ID>
1274

>  <Smiles>
[O-]P(C(P([O-])([O-])=O)Sc(cc1)ccc1Cl)([O-])=O

$$$$

Actelion Java MolfileCreator 2.0

  0  0  0  0  0  0              0 V3000
M  V30 BEGIN CTAB
M  V30 COUNTS 30 32 0 0 0
M  V30 BEGIN ATOM
M  V30 1 S 2.7026 -2.9945 0.0 0
M  V30 2 C 2.598 -1.9999 0.0 0
M  V30 3 C 3.6807 -3.2024 0.0 0
M  V30 4 C 3.5116 -1.5932 0.0 0
M  V30 5 C 1.732 -1.4999 0.0 0
M  V30 6 C 4.1807 -2.3364 0.0 0
M  V30 7 C 1.732 -0.5 0.0 0
M  V30 8 C 2.598 0.0 0.0 0
M  V30 9 C 0.866 0.0 0.0 0
M  V30 10 O 2.598 0.9999 0.0 0
M  V30 11 O 3.4641 -0.4999 0.0 0 CHG=-1
M  V30 12 C 0.0 -0.5 0.0 0
M  V30 13 N -0.9135 -0.0932 0.0 0
M  V30 14 C -0.1045 -1.4945 0.0 0
M  V30 15 C -1.5826 -0.8364 0.0 0
M  V30 16 C -1.1214 0.8848 0.0 0
M  V30 17 N -1.0826 -1.7024 0.0 0
M  V30 18 C -2.5771 -0.7318 0.0 0
M  V30 19 C -2.0725 1.1939 0.0 0
M  V30 20 C -3.1649 -1.5408 0.0 0
M  V30 21 C -2.2804 2.172 0.0 0
M  V30 22 C -2.8156 0.5247 0.0 0
M  V30 23 C -4.1595 -1.4363 0.0 0
M  V30 24 C -3.2314 2.481 0.0 0
M  V30 25 C -3.7667 0.8337 0.0 0
M  V30 26 C -4.7472 -2.2453 0.0 0
M  V30 27 C -3.9746 1.8119 0.0 0
M  V30 28 C -4.9256 2.1209 0.0 0
M  V30 29 O -5.1335 3.099 0.0 0
M  V30 30 O -5.6688 1.4518 0.0 0 CHG=-1
M  V30 END ATOM
M  V30 BEGIN BOND
M  V30 1 1 1 2
M  V30 2 1 1 3
M  V30 3 2 2 4
M  V30 4 1 2 5
M  V30 5 2 3 6
M  V30 6 1 5 7
M  V30 7 1 7 8
M  V30 8 2 7 9
M  V30 9 2 8 10
M  V30 10 1 8 11
M  V30 11 1 9 12
M  V30 12 1 12 13
M  V30 13 2 12 14
M  V30 14 1 13 15
M  V30 15 1 13 16
M  V30 16 1 14 17
M  V30 17 1 15 18
M  V30 18 1 16 19
M  V30 19 1 18 20
M  V30 20 2 19 21
M  V30 21 1 19 22
M  V30 22 1 20 23
M  V30 23 1 21 24
M  V30 24 2 22 25
M  V30 25 1 23 26
M  V30 26 2 24 27
M  V30 27 1 27 28
M  V30 28 2 28 29
M  V30 29 1 28 30
M  V30 30 1 4 6
M  V30 31 2 15 17
M  V30 32 1 25 27
M  V30 END BOND
M  V30 END CTAB
M  END
>  <Molecule Name>


>  <status>
DISCONTINUED

>  <cas>
133040-01-4

>  <name>
EPROSARTAN

>  <ID>
1275

>  <Smiles>
CCCCc1ncc(/C=C(\Cc2cccs2)/C([O-])=O)n1Cc(cc1)ccc1C([O-])=O

$$$$

Actelion Java MolfileCreator 2.0

  0  0  0  0  0  0              0 V3000
M  V30 BEGIN CTAB
M  V30 COUNTS 30 34 0 0 0
M  V30 BEGIN ATOM
M  V30 1 F 5.1961 -6.75 0.0 0
M  V30 2 C 5.1961 -5.25 0.0 0
M  V30 3 C 6.4951 -4.5 0.0 0
M  V30 4 C 3.8971 -4.5 0.0 0
M  V30 5 N 6.4951 -3.0 0.0 0
M  V30 6 N 7.7942 -5.25 0.0 0
M  V30 7 C 3.8971 -3.0 0.0 0
M  V30 8 C 5.1961 -2.25 0.0 0
M  V30 9 C 9.1645 -4.6398 0.0 0
M  V30 10 C 7.951 -6.7417 0.0 0
M  V30 11 C 2.598 -2.25 0.0 0
M  V30 12 N 5.1961 -0.75 0.0 0
M  V30 13 C 10.1682 -5.7546 0.0 0 CFG=2
M  V30 14 C 9.4182 -7.0536 0.0 0 CFG=1
M  V30 15 O 1.299 -3.0 0.0 0
M  V30 16 C 2.598 -0.75 0.0 0
M  V30 17 C 6.4951 0.0 0.0 0
M  V30 18 C 3.8971 0.0 0.0 0
M  V30 19 C 10.9182 -7.0536 0.0 0 CFG=2
M  V30 20 C 1.299 0.0 0.0 0
M  V30 21 C 7.7942 -0.75 0.0 0
M  V30 22 C 6.4951 1.4999 0.0 0
M  V30 23 N 12.2172 -7.8036 0.0 0
M  V30 24 O 1.299 1.5 0.0 0
M  V30 25 O 0.0 -0.75 0.0 0 CHG=-1
M  V30 26 F 7.7942 -2.25 0.0 0
M  V30 27 C 9.0932 0.0 0.0 0
M  V30 28 C 7.7942 2.2499 0.0 0
M  V30 29 C 9.0932 1.5 0.0 0
M  V30 30 F 10.3923 2.25 0.0 0
M  V30 END ATOM
M  V30 BEGIN BOND
M  V30 1 1 1 2
M  V30 2 2 2 3
M  V30 3 1 2 4
M  V30 4 1 3 5
M  V30 5 1 3 6
M  V30 6 2 4 7
M  V30 7 2 5 8
M  V30 8 1 6 9
M  V30 9 1 6 10
M  V30 10 1 7 11
M  V30 11 1 8 12
M  V30 12 1 13 9 CFG=1
M  V30 13 1 14 10 CFG=1
M  V30 14 2 11 15
M  V30 15 1 11 16
M  V30 16 1 12 17
M  V30 17 1 12 18
M  V30 18 1 19 13
M  V30 19 1 16 20
M  V30 20 2 17 21
M  V30 21 1 17 22
M  V30 22 1 19 23 CFG=1
M  V30 23 2 20 24
M  V30 24 1 20 25
M  V30 25 1 21 26
M  V30 26 1 21 27
M  V30 27 2 22 28
M  V30 28 2 27 29
M  V30 29 1 29 30
M  V30 30 1 7 8
M  V30 31 1 13 14
M  V30 32 1 14 19
M  V30 33 2 16 18
M  V30 34 1 28 29
M  V30 END BOND
M  V30 BEGIN COLLECTION
M  V30 MDLV30/STEABS ATOMS=(3 13 14 19)
M  V30 END COLLECTION
M  V30 END CTAB
M  END
>  <Molecule Name>


>  <status>
DISCONTINUED

>  <cas>
147059-72-1

>  <name>
TROVAFLOXACIN

>  <ID>
1276

>  <Smiles>
N[C@H]1[C@@H](C2)[C@H]1CN2c(nc(c(C(C(C([O-])=O)=C1)=O)c2)N1c(ccc(F)c1)c1F)c2F

$$$$

Actelion Java MolfileCreator 2.0

  0  0  0  0  0  0              0 V3000
M  V30 BEGIN CTAB
M  V30 COUNTS 40 43 0 0 0
M  V30 BEGIN ATOM
M  V30 1 S 4.3301 0.0 0.0 0
M  V30 2 C 5.1961 -0.5 0.0 0
M  V30 3 C 3.4641 -0.5 0.0 0
M  V30 4 C 5.1961 -1.5 0.0 0
M  V30 5 C 6.0621 0.0 0.0 0
M  V30 6 C 2.598 0.0 0.0 0 CFG=2
M  V30 7 C 6.0621 -2.0 0.0 0
M  V30 8 C 6.9282 -0.5 0.0 0
M  V30 9 N 2.598 0.9999 0.0 0
M  V30 10 C 1.732 -0.5 0.0 0 CFG=2
M  V30 11 C 6.9282 -1.5 0.0 0
M  V30 12 C 3.4641 1.4999 0.0 0
M  V30 13 O 1.732 -1.5 0.0 0
M  V30 14 C 0.866 0.0 0.0 0
M  V30 15 O 4.3301 0.9999 0.0 0
M  V30 16 C 3.4641 2.4999 0.0 0
M  V30 17 N 0.0 -0.5 0.0 0
M  V30 18 C 4.3301 2.9999 0.0 0
M  V30 19 C 2.598 3.0 0.0 0
M  V30 20 C -0.866 0.0 0.0 0 CFG=2
M  V30 21 C 0.0 -1.4999 0.0 0
M  V30 22 C 4.3301 3.9999 0.0 0
M  V30 23 C 5.1961 2.4999 0.0 0
M  V30 24 C 2.598 4.0 0.0 0
M  V30 25 C -0.866 1.0 0.0 0
M  V30 26 C -1.732 -0.4999 0.0 0
M  V30 27 C -0.866 -1.9999 0.0 0 CFG=2
M  V30 28 O 5.1961 4.4999 0.0 0
M  V30 29 C 3.4641 4.5 0.0 0
M  V30 30 O -1.732 1.5 0.0 0
M  V30 31 N 0.0 1.5 0.0 0
M  V30 32 C -1.732 -1.4999 0.0 0 CFG=1
M  V30 33 C -0.866 -2.9999 0.0 0
M  V30 34 C 0.0 2.5 0.0 0
M  V30 35 C -2.598 -1.9999 0.0 0
M  V30 36 C -1.732 -3.4999 0.0 0
M  V30 37 C -0.9999 2.5 0.0 0
M  V30 38 C 0.0 3.5 0.0 0
M  V30 39 C 1.0 2.4999 0.0 0
M  V30 40 C -2.598 -2.9999 0.0 0
M  V30 END ATOM
M  V30 BEGIN BOND
M  V30 1 1 1 2
M  V30 2 1 1 3
M  V30 3 2 2 4
M  V30 4 1 2 5
M  V30 5 1 6 3
M  V30 6 1 4 7
M  V30 7 2 5 8
M  V30 8 1 6 9 CFG=1
M  V30 9 1 10 6
M  V30 10 2 7 11
M  V30 11 1 9 12
M  V30 12 1 10 13 CFG=3
M  V30 13 1 10 14
M  V30 14 2 12 15
M  V30 15 1 12 16
M  V30 16 1 14 17
M  V30 17 2 16 18
M  V30 18 1 16 19
M  V30 19 1 20 17
M  V30 20 1 17 21
M  V30 21 1 18 22
M  V30 22 1 18 23
M  V30 23 2 19 24
M  V30 24 1 20 25 CFG=1
M  V30 25 1 20 26
M  V30 26 1 27 21 CFG=1
M  V30 27 1 22 28
M  V30 28 2 22 29
M  V30 29 2 25 30
M  V30 30 1 25 31
M  V30 31 1 32 26 CFG=1
M  V30 32 1 27 33
M  V30 33 1 31 34
M  V30 34 1 32 35
M  V30 35 1 33 36
M  V30 36 1 34 37
M  V30 37 1 34 38
M  V30 38 1 34 39
M  V30 39 1 35 40
M  V30 40 1 8 11
M  V30 41 1 24 29
M  V30 42 1 27 32
M  V30 43 1 36 40
M  V30 END BOND
M  V30 BEGIN COLLECTION
M  V30 MDLV30/STERAC1 ATOMS=(5 6 10 20 27 32)
M  V30 END COLLECTION
M  V30 END CTAB
M  END
>  <Molecule Name>


>  <status>
-

>  <cas>
159989-64-7

>  <name>
NELFINAVIR

>  <ID>
1277

>  <Smiles>
CC(C)(C)NC([C@H]1N(C[C@H]([C@H](CSc2ccccc2)NC(c2c(C)c(O)ccc2)=O)O)C[C@@H](CCCC2)[C@@H]2C1)=O

$$$$

Actelion Java MolfileCreator 2.0

  0  0  0  0  0  0              0 V3000
M  V30 BEGIN CTAB
M  V30 COUNTS 24 26 0 0 0
M  V30 BEGIN ATOM
M  V30 1 F 5.0582 -4.0387 0.0 0
M  V30 2 C 3.7936 -3.2175 0.0 0
M  V30 3 C 3.8725 -1.7117 0.0 0
M  V30 4 C 2.4501 -3.902 0.0 0
M  V30 5 C 2.608 -0.8905 0.0 0
M  V30 6 C 1.3019 -2.9789 0.0 0
M  V30 7 C 1.2645 -1.5751 0.0 0
M  V30 8 C 0.0 -0.7539 0.0 0 CFG=1
M  V30 9 O -1.3774 -0.1406 0.0 0
M  V30 10 C -0.1576 -2.2534 0.0 0
M  V30 11 C 1.3057 0.0 0.0 0
M  V30 12 C -2.3863 -1.2611 0.0 0
M  V30 13 C -1.6324 -2.5669 0.0 0
M  V30 14 C 0.7931 -3.4249 0.0 0
M  V30 15 C 1.3057 1.5078 0.0 0
M  V30 16 C -2.0984 -4.0009 0.0 0
M  V30 17 C 0.3853 -4.8079 0.0 0
M  V30 18 C 2.6115 2.2617 0.0 0
M  V30 19 C -1.0894 -5.1214 0.0 0
M  V30 20 N 2.6115 3.7695 0.0 0
M  V30 21 C -1.5554 -6.5554 0.0 0
M  V30 22 C 3.9173 4.5234 0.0 0
M  V30 23 C 1.3057 4.5234 0.0 0
M  V30 24 N -2.0213 -7.9894 0.0 0
M  V30 END ATOM
M  V30 BEGIN BOND
M  V30 1 1 1 2
M  V30 2 2 2 3
M  V30 3 1 2 4
M  V30 4 1 3 5
M  V30 5 2 4 6
M  V30 6 2 5 7
M  V30 7 1 8 7
M  V30 8 1 8 9
M  V30 9 1 8 10
M  V30 10 1 8 11 CFG=1
M  V30 11 1 9 12
M  V30 12 2 10 13
M  V30 13 1 10 14
M  V30 14 1 11 15
M  V30 15 1 13 16
M  V30 16 2 14 17
M  V30 17 1 15 18
M  V30 18 2 16 19
M  V30 19 1 18 20
M  V30 20 1 19 21
M  V30 21 1 20 22
M  V30 22 1 20 23
M  V30 23 3 21 24
M  V30 24 1 6 7
M  V30 25 1 12 13
M  V30 26 1 17 19
M  V30 END BOND
M  V30 BEGIN COLLECTION
M  V30 MDLV30/STERAC1 ATOMS=(1 8)
M  V30 END COLLECTION
M  V30 END CTAB
M  END
>  <Molecule Name>


>  <status>
-

>  <cas>
59729-33-8

>  <name>
CITALOPRAM

>  <ID>
1278

>  <Smiles>
CN(C)CCCC1(c(cc2)ccc2F)OCc2c1ccc(C#N)c2

$$$$

Actelion Java MolfileCreator 2.0

  0  0  0  0  0  0              0 V3000
M  V30 BEGIN CTAB
M  V30 COUNTS 24 26 0 0 0
M  V30 BEGIN ATOM
M  V30 1 F 5.0582 -4.0387 0.0 0
M  V30 2 C 3.7936 -3.2175 0.0 0
M  V30 3 C 3.8725 -1.7117 0.0 0
M  V30 4 C 2.4501 -3.902 0.0 0
M  V30 5 C 2.608 -0.8905 0.0 0
M  V30 6 C 1.3019 -2.9789 0.0 0
M  V30 7 C 1.2645 -1.5751 0.0 0
M  V30 8 C 0.0 -0.7539 0.0 0 CFG=1
M  V30 9 O -1.3774 -0.1406 0.0 0
M  V30 10 C -0.1576 -2.2534 0.0 0
M  V30 11 C 1.3057 0.0 0.0 0
M  V30 12 C -2.3863 -1.2611 0.0 0
M  V30 13 C -1.6324 -2.5669 0.0 0
M  V30 14 C 0.7931 -3.4249 0.0 0
M  V30 15 C 1.3057 1.5078 0.0 0
M  V30 16 C -2.0984 -4.0009 0.0 0
M  V30 17 C 0.3853 -4.8079 0.0 0
M  V30 18 C 2.6115 2.2617 0.0 0
M  V30 19 C -1.0894 -5.1214 0.0 0
M  V30 20 N 2.6115 3.7695 0.0 0
M  V30 21 C -1.5554 -6.5554 0.0 0
M  V30 22 C 3.9173 4.5234 0.0 0
M  V30 23 C 1.3057 4.5234 0.0 0
M  V30 24 N -2.0213 -7.9894 0.0 0
M  V30 END ATOM
M  V30 BEGIN BOND
M  V30 1 1 1 2
M  V30 2 2 2 3
M  V30 3 1 2 4
M  V30 4 1 3 5
M  V30 5 2 4 6
M  V30 6 2 5 7
M  V30 7 1 8 7
M  V30 8 1 8 9
M  V30 9 1 8 10
M  V30 10 1 8 11 CFG=1
M  V30 11 1 9 12
M  V30 12 2 10 13
M  V30 13 1 10 14
M  V30 14 1 11 15
M  V30 15 1 13 16
M  V30 16 2 14 17
M  V30 17 1 15 18
M  V30 18 2 16 19
M  V30 19 1 18 20
M  V30 20 1 19 21
M  V30 21 1 20 22
M  V30 22 1 20 23
M  V30 23 3 21 24
M  V30 24 1 6 7
M  V30 25 1 12 13
M  V30 26 1 17 19
M  V30 END BOND
M  V30 BEGIN COLLECTION
M  V30 MDLV30/STERAC1 ATOMS=(1 8)
M  V30 END COLLECTION
M  V30 END CTAB
M  END
>  <Molecule Name>


>  <status>
-

>  <cas>
128196-01-0

>  <name>
ESCITALOPRAM

>  <ID>
1279

>  <Smiles>
CN(C)CCCC1(c(cc2)ccc2F)OCc2c1ccc(C#N)c2

$$$$

Actelion Java MolfileCreator 2.0

  0  0  0  0  0  0              0 V3000
M  V30 BEGIN CTAB
M  V30 COUNTS 21 23 0 0 0
M  V30 BEGIN ATOM
M  V30 1 Cl 4.3301 0.9999 0.0 0
M  V30 2 C 4.3301 0.0 0.0 0
M  V30 3 C 3.4641 -0.5 0.0 0
M  V30 4 C 5.1961 -0.5 0.0 0
M  V30 5 C 3.4641 -1.5 0.0 0
M  V30 6 C 2.598 0.0 0.0 0 CFG=1
M  V30 7 C 5.1961 -1.5 0.0 0
M  V30 8 C 4.3301 -2.0 0.0 0
M  V30 9 N 2.598 1.0 0.0 0
M  V30 10 C 1.732 -0.5 0.0 0
M  V30 11 C 1.732 1.4999 0.0 0
M  V30 12 C 3.4641 1.5 0.0 0
M  V30 13 O 1.732 -1.5 0.0 0
M  V30 14 O 0.866 0.0 0.0 0
M  V30 15 C 1.732 2.5 0.0 0
M  V30 16 C 3.4641 2.5 0.0 0
M  V30 17 C 0.0 -0.5 0.0 0
M  V30 18 C 2.598 3.0 0.0 0
M  V30 19 C 0.9889 3.1691 0.0 0
M  V30 20 S 2.3901 3.9781 0.0 0
M  V30 21 C 1.3956 4.0826 0.0 0
M  V30 END ATOM
M  V30 BEGIN BOND
M  V30 1 1 1 2
M  V30 2 2 2 3
M  V30 3 1 2 4
M  V30 4 1 3 5
M  V30 5 1 6 3
M  V30 6 2 4 7
M  V30 7 2 5 8
M  V30 8 1 6 9 CFG=3
M  V30 9 1 6 10
M  V30 10 1 9 11
M  V30 11 1 9 12
M  V30 12 2 10 13
M  V30 13 1 10 14
M  V30 14 1 11 15
M  V30 15 1 12 16
M  V30 16 1 14 17
M  V30 17 2 15 18
M  V30 18 1 15 19
M  V30 19 1 18 20
M  V30 20 2 19 21
M  V30 21 1 7 8
M  V30 22 1 16 18
M  V30 23 1 20 21
M  V30 END BOND
M  V30 BEGIN COLLECTION
M  V30 MDLV30/STERAC1 ATOMS=(1 6)
M  V30 END COLLECTION
M  V30 END CTAB
M  END
>  <Molecule Name>


>  <status>
-

>  <cas>
113665-84-2

>  <name>
CLOPIDOGREL

>  <ID>
1280

>  <Smiles>
COC(C(c(cccc1)c1Cl)N(CC1)Cc2c1scc2)=O

$$$$

Actelion Java MolfileCreator 2.0

  0  0  0  0  0  0              0 V3000
M  V30 BEGIN CTAB
M  V30 COUNTS 20 22 0 0 0
M  V30 BEGIN ATOM
M  V30 1 N 0.818 -4.393 0.0 0
M  V30 2 N 1.5612 -3.7239 0.0 0
M  V30 3 C -0.0479 -3.893 0.0 0
M  V30 4 C 1.1545 -2.8104 0.0 0
M  V30 5 C 2.5393 -3.9318 0.0 0
M  V30 6 N 0.1599 -2.9149 0.0 0
M  V30 7 C 3.2085 -3.1887 0.0 0
M  V30 8 C 2.8994 -2.2376 0.0 0
M  V30 9 C 4.1866 -3.3966 0.0 0
M  V30 10 C 3.5686 -1.4945 0.0 0
M  V30 11 C 4.8557 -2.6534 0.0 0
M  V30 12 C 4.5467 -1.7024 0.0 0
M  V30 13 C 3.4641 -0.5 0.0 0
M  V30 14 N 5.0467 -0.8364 0.0 0
M  V30 15 C 4.3776 -0.0932 0.0 0
M  V30 16 C 2.598 0.0 0.0 0
M  V30 17 C 1.732 -0.5 0.0 0
M  V30 18 N 0.866 0.0 0.0 0
M  V30 19 C 0.866 1.0 0.0 0
M  V30 20 C 0.0 -0.5 0.0 0
M  V30 END ATOM
M  V30 BEGIN BOND
M  V30 1 1 1 2
M  V30 2 2 1 3
M  V30 3 1 2 4
M  V30 4 1 2 5
M  V30 5 1 3 6
M  V30 6 1 5 7
M  V30 7 2 7 8
M  V30 8 1 7 9
M  V30 9 1 8 10
M  V30 10 2 9 11
M  V30 11 2 10 12
M  V30 12 1 10 13
M  V30 13 1 12 14
M  V30 14 2 13 15
M  V30 15 1 13 16
M  V30 16 1 16 17
M  V30 17 1 17 18
M  V30 18 1 18 19
M  V30 19 1 18 20
M  V30 20 2 4 6
M  V30 21 1 11 12
M  V30 22 1 14 15
M  V30 END BOND
M  V30 END CTAB
M  END
>  <Molecule Name>


>  <status>
-

>  <cas>
144034-80-0

>  <name>
RIZATRIPTAN

>  <ID>
1281

>  <Smiles>
CN(C)CCc1c[nH]c2c1cc(Cn1ncnc1)cc2

$$$$

Actelion Java MolfileCreator 2.0

  0  0  0  0  0  0              0 V3000
M  V30 BEGIN CTAB
M  V30 COUNTS 33 36 0 0 0
M  V30 BEGIN ATOM
M  V30 1 S 7.7942 2.25 0.0 0
M  V30 2 O 8.5442 3.549 0.0 0
M  V30 3 O 7.0442 3.549 0.0 0
M  V30 4 N 9.0932 1.5 0.0 0
M  V30 5 C 6.4951 1.5 0.0 0
M  V30 6 C 9.0932 0.0 0.0 0
M  V30 7 C 10.3923 2.25 0.0 0
M  V30 8 C 5.1961 2.25 0.0 0
M  V30 9 C 6.4951 0.0 0.0 0
M  V30 10 C 10.3923 -0.75 0.0 0
M  V30 11 C 11.6913 1.5 0.0 0
M  V30 12 C 3.8971 1.5 0.0 0
M  V30 13 C 5.1961 -0.75 0.0 0
M  V30 14 N 11.6913 0.0 0.0 0
M  V30 15 C 2.598 2.25 0.0 0
M  V30 16 C 3.8971 0.0 0.0 0
M  V30 17 C 12.9903 -0.75 0.0 0
M  V30 18 N 2.598 3.75 0.0 0
M  V30 19 N 1.299 1.5 0.0 0
M  V30 20 O 2.598 -0.75 0.0 0
M  V30 21 C 1.299 4.5 0.0 0
M  V30 22 C 0.0 2.25 0.0 0
M  V30 23 C 1.299 0.0 0.0 0
M  V30 24 O 1.299 6.0 0.0 0
M  V30 25 C 0.0 3.75 0.0 0
M  V30 26 C -1.4265 1.7864 0.0 0
M  V30 27 C 0.0 -0.75 0.0 0
M  V30 28 N -1.4265 4.2135 0.0 0
M  V30 29 N -2.3082 3.0 0.0 0
M  V30 30 C -1.8901 0.3598 0.0 0
M  V30 31 C -1.8901 5.6401 0.0 0
M  V30 32 C -3.3573 0.048 0.0 0
M  V30 33 C -3.8208 -1.3785 0.0 0
M  V30 END ATOM
M  V30 BEGIN BOND
M  V30 1 2 1 2
M  V30 2 2 1 3
M  V30 3 1 1 4
M  V30 4 1 1 5
M  V30 5 1 4 6
M  V30 6 1 4 7
M  V30 7 2 5 8
M  V30 8 1 5 9
M  V30 9 1 6 10
M  V30 10 1 7 11
M  V30 11 1 8 12
M  V30 12 2 9 13
M  V30 13 1 10 14
M  V30 14 1 12 15
M  V30 15 2 12 16
M  V30 16 1 14 17
M  V30 17 2 15 18
M  V30 18 1 15 19
M  V30 19 1 16 20
M  V30 20 1 18 21
M  V30 21 1 19 22
M  V30 22 1 20 23
M  V30 23 2 21 24
M  V30 24 1 21 25
M  V30 25 1 22 26
M  V30 26 1 23 27
M  V30 27 1 25 28
M  V30 28 2 26 29
M  V30 29 1 26 30
M  V30 30 1 28 31
M  V30 31 1 30 32
M  V30 32 1 32 33
M  V30 33 1 11 14
M  V30 34 1 13 16
M  V30 35 2 22 25
M  V30 36 1 28 29
M  V30 END BOND
M  V30 END CTAB
M  END
>  <Molecule Name>


>  <status>
-

>  <cas>
139755-83-2

>  <name>
SILDENAFIL

>  <ID>
1282

>  <Smiles>
CCCc1nn(C)c2c1NC(c(cc(cc1)S(N3CCN(C)CC3)(=O)=O)c1OCC)=NC2=O

$$$$

Actelion Java MolfileCreator 2.0

  0  0  0  0  0  0              0 V3000
M  V30 BEGIN CTAB
M  V30 COUNTS 21 24 0 0 0
M  V30 BEGIN ATOM
M  V30 1 O 1.732 -0.5 0.0 0
M  V30 2 C 0.866 0.0 0.0 0
M  V30 3 C 0.0 -0.5 0.0 0 CFG=1
M  V30 4 C -0.9135 -0.0932 0.0 0
M  V30 5 C -0.1045 -1.4945 0.0 0
M  V30 6 C -1.5826 -0.8364 0.0 0
M  V30 7 C -1.0826 -1.7024 0.0 0 CFG=1
M  V30 8 N -1.4894 -2.6159 0.0 0
M  V30 9 C -2.4675 -2.8238 0.0 0
M  V30 10 C -0.9894 -3.482 0.0 0
M  V30 11 N -3.2765 -2.2361 0.0 0
M  V30 12 C -2.572 -3.8184 0.0 0
M  V30 13 N -1.6585 -4.2251 0.0 0
M  V30 14 C -4.1901 -2.6428 0.0 0
M  V30 15 C -3.4856 -4.2251 0.0 0
M  V30 16 N -4.2946 -3.6373 0.0 0
M  V30 17 N -4.9991 -2.055 0.0 0
M  V30 18 N -3.5901 -5.2196 0.0 0
M  V30 19 C -2.7811 -5.8074 0.0 0
M  V30 20 C -2.3744 -6.721 0.0 0
M  V30 21 C -1.7866 -5.9119 0.0 0
M  V30 END ATOM
M  V30 BEGIN BOND
M  V30 1 1 1 2
M  V30 2 1 3 2 CFG=3
M  V30 3 1 3 4
M  V30 4 1 3 5
M  V30 5 2 4 6
M  V30 6 1 7 5
M  V30 7 1 7 8 CFG=3
M  V30 8 1 8 9
M  V30 9 1 8 10
M  V30 10 2 9 11
M  V30 11 1 9 12
M  V30 12 2 10 13
M  V30 13 1 11 14
M  V30 14 2 12 15
M  V30 15 2 14 16
M  V30 16 1 14 17
M  V30 17 1 15 18
M  V30 18 1 18 19
M  V30 19 1 19 20
M  V30 20 1 19 21
M  V30 21 1 6 7
M  V30 22 1 12 13
M  V30 23 1 15 16
M  V30 24 1 20 21
M  V30 END BOND
M  V30 BEGIN COLLECTION
M  V30 MDLV30/STERAC1 ATOMS=(2 3 7)
M  V30 END COLLECTION
M  V30 END CTAB
M  END
>  <Molecule Name>


>  <status>
-

>  <cas>
136470-78-5

>  <name>
ABACAVIR

>  <ID>
1283

>  <Smiles>
Nc1nc(NC2CC2)c2ncn([C@@H]3C=C[C@H](CO)C3)c2n1

$$$$

Actelion Java MolfileCreator 2.0

  0  0  0  0  0  0              0 V3000
M  V30 BEGIN CTAB
M  V30 COUNTS 43 48 0 0 0
M  V30 BEGIN ATOM
M  V30 1 O 1.732 -1.5 0.0 0
M  V30 2 C 1.732 -0.5 0.0 0
M  V30 3 O 2.598 0.0 0.0 0
M  V30 4 C 0.866 0.0 0.0 0
M  V30 5 C 3.4641 -0.5 0.0 0 CFG=2
M  V30 6 C 0.0 -0.5 0.0 0
M  V30 7 C 3.5686 -1.4945 0.0 0 CFG=2
M  V30 8 C 4.3776 -0.0932 0.0 0 CFG=1
M  V30 9 C 4.5467 -1.7024 0.0 0 CFG=1
M  V30 10 C 2.8994 -2.2376 0.0 0
M  V30 11 C 2.6175 -1.1855 0.0 0
M  V30 12 N 4.5855 0.8848 0.0 0 CHG=1
M  V30 13 C 5.0467 -0.8364 0.0 0
M  V30 14 C 4.8557 -2.6534 0.0 0 CFG=1
M  V30 15 C 3.2085 -3.1887 0.0 0
M  V30 16 C 4.7934 1.863 0.0 0
M  V30 17 C 3.6345 0.5758 0.0 0
M  V30 18 C 5.3287 0.2157 0.0 0
M  V30 19 C 4.1866 -3.3966 0.0 0 CFG=2
M  V30 20 C 5.8339 -2.8614 0.0 0
M  V30 21 C 4.0503 2.5321 0.0 0
M  V30 22 C 2.8913 1.2449 0.0 0
M  V30 23 C 6.2797 0.5247 0.0 0
M  V30 24 C 4.4956 -4.3476 0.0 0 CFG=2
M  V30 25 C 6.1429 -3.8124 0.0 0
M  V30 26 C 3.0992 2.2231 0.0 0
M  V30 27 C 7.0229 -0.1443 0.0 0
M  V30 28 C 5.4738 -4.5556 0.0 0 CFG=1
M  V30 29 C 3.8265 -5.0908 0.0 0
M  V30 30 C 3.5175 -4.1397 0.0 0
M  V30 31 C 5.7828 -5.5066 0.0 0
M  V30 32 C 4.1355 -6.0418 0.0 0 CFG=1
M  V30 33 C 5.1137 -6.2498 0.0 0 CFG=1
M  V30 34 N 3.4664 -6.785 0.0 0
M  V30 35 O 5.4227 -7.2008 0.0 0
M  V30 36 C 2.4882 -6.5771 0.0 0
M  V30 37 C 3.7754 -7.736 0.0 0
M  V30 38 C 6.4008 -7.4087 0.0 0
M  V30 39 C 1.8191 -7.3202 0.0 0
M  V30 40 C 3.1063 -8.4792 0.0 0
M  V30 41 O 7.07 -6.6656 0.0 0
M  V30 42 C 6.7098 -8.3598 0.0 0
M  V30 43 C 2.1281 -8.2713 0.0 0
M  V30 END ATOM
M  V30 BEGIN BOND
M  V30 1 2 1 2
M  V30 2 1 2 3
M  V30 3 1 2 4
M  V30 4 1 5 3 CFG=1
M  V30 5 1 4 6
M  V30 6 1 7 5
M  V30 7 1 8 5
M  V30 8 1 9 7
M  V30 9 1 7 10
M  V30 10 1 7 11 CFG=1
M  V30 11 1 8 12 CFG=1
M  V30 12 1 8 13
M  V30 13 1 14 9
M  V30 14 1 10 15
M  V30 15 1 12 16
M  V30 16 1 12 17
M  V30 17 1 12 18
M  V30 18 1 19 14
M  V30 19 1 14 20 CFG=3
M  V30 20 1 16 21
M  V30 21 1 17 22
M  V30 22 1 18 23
M  V30 23 1 24 19
M  V30 24 1 20 25
M  V30 25 1 21 26
M  V30 26 2 23 27
M  V30 27 1 28 24
M  V30 28 1 24 29
M  V30 29 1 24 30 CFG=1
M  V30 30 1 28 31 CFG=1
M  V30 31 1 32 29
M  V30 32 1 33 31
M  V30 33 1 32 34 CFG=1
M  V30 34 1 33 35 CFG=3
M  V30 35 1 34 36
M  V30 36 1 34 37
M  V30 37 1 35 38
M  V30 38 1 36 39
M  V30 39 1 37 40
M  V30 40 2 38 41
M  V30 41 1 38 42
M  V30 42 1 39 43
M  V30 43 1 9 13 CFG=1
M  V30 44 1 19 15 CFG=1
M  V30 45 1 22 26
M  V30 46 1 25 28
M  V30 47 1 32 33
M  V30 48 1 40 43
M  V30 END BOND
M  V30 BEGIN COLLECTION
M  V30 MDLV30/STERAC1 ATOMS=(10 5 7 8 9 14 19 24 28 32 33)
M  V30 END COLLECTION
M  V30 END CTAB
M  END
>  <Molecule Name>


>  <status>
DISCONTINUED

>  <cas>
465499-11-0

>  <name>
RAPACURONIUM

>  <ID>
1284

>  <Smiles>
CCC(O[C@@H]([C@H](C1)[N+]2(CC=C)CCCCC2)[C@@](C)(CC2)[C@@H]1[C@H](CC1)[C@H]2[C@@](C)(C[C@@H]2N3CCCCC3)[C@@H]1C[C@@H]2OC(C)=O)=O

$$$$

Actelion Java MolfileCreator 2.0

  0  0  0  0  0  0              0 V3000
M  V30 BEGIN CTAB
M  V30 COUNTS 23 25 0 0 0
M  V30 BEGIN ATOM
M  V30 1 S 2.3418 -5.5859 0.0 0
M  V30 2 O 2.6537 -4.1187 0.0 0
M  V30 3 O 1.2271 -4.5822 0.0 0
M  V30 4 N 1.3381 -6.7006 0.0 0
M  V30 5 C 3.809 -5.8978 0.0 0
M  V30 6 C -0.1536 -6.5438 0.0 0
M  V30 7 C 1.65 -8.1678 0.0 0
M  V30 8 C 4.8127 -4.783 0.0 0
M  V30 9 C -0.7637 -7.9141 0.0 0
M  V30 10 C 0.3509 -8.9178 0.0 0
M  V30 11 C 4.3492 -3.3565 0.0 0
M  V30 12 C 6.28 -5.0949 0.0 0
M  V30 13 C 5.3529 -2.2417 0.0 0
M  V30 14 C 7.2837 -3.9802 0.0 0
M  V30 15 C 6.8201 -2.5536 0.0 0
M  V30 16 C 5.1961 -0.75 0.0 0
M  V30 17 N 7.5701 -1.2546 0.0 0
M  V30 18 C 6.5664 -0.1398 0.0 0
M  V30 19 C 3.8971 0.0 0.0 0
M  V30 20 C 2.598 -0.75 0.0 0
M  V30 21 N 1.299 0.0 0.0 0
M  V30 22 C 1.299 1.5 0.0 0
M  V30 23 C 0.0 -0.75 0.0 0
M  V30 END ATOM
M  V30 BEGIN BOND
M  V30 1 2 1 2
M  V30 2 2 1 3
M  V30 3 1 1 4
M  V30 4 1 1 5
M  V30 5 1 4 6
M  V30 6 1 4 7
M  V30 7 1 5 8
M  V30 8 1 6 9
M  V30 9 1 7 10
M  V30 10 2 8 11
M  V30 11 1 8 12
M  V30 12 1 11 13
M  V30 13 2 12 14
M  V30 14 2 13 15
M  V30 15 1 13 16
M  V30 16 1 15 17
M  V30 17 2 16 18
M  V30 18 1 16 19
M  V30 19 1 19 20
M  V30 20 1 20 21
M  V30 21 1 21 22
M  V30 22 1 21 23
M  V30 23 1 9 10
M  V30 24 1 14 15
M  V30 25 1 17 18
M  V30 END BOND
M  V30 END CTAB
M  END
>  <Molecule Name>


>  <status>
-

>  <cas>
154323-57-6

>  <name>
ALMOTRIPTAN

>  <ID>
1285

>  <Smiles>
CN(C)CCc1c[nH]c2c1cc(CS(N1CCCC1)(=O)=O)cc2

$$$$

Actelion Java MolfileCreator 2.0

  0  0  0  0  0  0              0 V3000
M  V30 BEGIN CTAB
M  V30 COUNTS 18 20 0 0 0
M  V30 BEGIN ATOM
M  V30 1 O 1.732 -0.5 0.0 0
M  V30 2 C 0.866 0.0 0.0 0
M  V30 3 N 0.866 1.0 0.0 0
M  V30 4 C 0.0 -0.5 0.0 0
M  V30 5 C 0.0 -1.4999 0.0 0
M  V30 6 C -0.866 0.0 0.0 0
M  V30 7 C -0.866 -1.9999 0.0 0
M  V30 8 C -1.732 -0.4999 0.0 0
M  V30 9 C -1.732 -1.4999 0.0 0
M  V30 10 C -1.0739 -2.9781 0.0 0
M  V30 11 N -2.4751 -2.1691 0.0 0
M  V30 12 C -2.0684 -3.0826 0.0 0
M  V30 13 C -0.4861 -3.7871 0.0 0
M  V30 14 C -2.4751 -3.9962 0.0 0
M  V30 15 C -0.8928 -4.7007 0.0 0 CFG=2
M  V30 16 C -1.8874 -4.8052 0.0 0
M  V30 17 N -0.3051 -5.5097 0.0 0
M  V30 18 C 0.6894 -5.4051 0.0 0
M  V30 END ATOM
M  V30 BEGIN BOND
M  V30 1 2 1 2
M  V30 2 1 2 3
M  V30 3 1 2 4
M  V30 4 2 4 5
M  V30 5 1 4 6
M  V30 6 1 5 7
M  V30 7 2 6 8
M  V30 8 2 7 9
M  V30 9 1 7 10
M  V30 10 1 9 11
M  V30 11 2 10 12
M  V30 12 1 10 13
M  V30 13 1 12 14
M  V30 14 1 15 13
M  V30 15 1 14 16
M  V30 16 1 15 17 CFG=1
M  V30 17 1 17 18
M  V30 18 1 8 9
M  V30 19 1 11 12
M  V30 20 1 15 16
M  V30 END BOND
M  V30 BEGIN COLLECTION
M  V30 MDLV30/STERAC1 ATOMS=(1 15)
M  V30 END COLLECTION
M  V30 END CTAB
M  END
>  <Molecule Name>


>  <status>
-

>  <cas>
158747-02-5

>  <name>
FROVATRIPTAN

>  <ID>
1286

>  <Smiles>
CNC(CC1)Cc2c1[nH]c(cc1)c2cc1C(N)=O

$$$$

Actelion Java MolfileCreator 2.0

  0  0  0  0  0  0              0 V3000
M  V30 BEGIN CTAB
M  V30 COUNTS 25 27 0 0 0
M  V30 BEGIN ATOM
M  V30 1 S 7.8987 0.0054 0.0 0
M  V30 2 C 8.8769 -0.2024 0.0 0
M  V30 3 C 7.7942 0.9999 0.0 0 CFG=2
M  V30 4 O 9.2836 -1.1159 0.0 0
M  V30 5 N 9.3769 0.6635 0.0 0
M  V30 6 C 8.7077 1.4067 0.0 0
M  V30 7 C 6.9282 1.4999 0.0 0
M  V30 8 O 8.9156 2.3848 0.0 0
M  V30 9 C 6.0621 0.9999 0.0 0
M  V30 10 C 5.1961 1.4999 0.0 0
M  V30 11 C 6.0621 0.0 0.0 0
M  V30 12 C 4.3301 0.9999 0.0 0
M  V30 13 C 5.1961 -0.5 0.0 0
M  V30 14 C 4.3301 0.0 0.0 0
M  V30 15 O 3.4641 -0.5 0.0 0
M  V30 16 C 2.598 0.0 0.0 0
M  V30 17 C 1.732 -0.5 0.0 0
M  V30 18 N 0.866 0.0 0.0 0
M  V30 19 C 0.866 1.0 0.0 0
M  V30 20 C 0.0 -0.5 0.0 0
M  V30 21 N 1.732 1.4999 0.0 0
M  V30 22 C 0.0 1.4999 0.0 0
M  V30 23 C 1.732 2.5 0.0 0
M  V30 24 C 0.0 2.5 0.0 0
M  V30 25 C 0.866 3.0 0.0 0
M  V30 END ATOM
M  V30 BEGIN BOND
M  V30 1 1 1 2
M  V30 2 1 3 1
M  V30 3 2 2 4
M  V30 4 1 2 5
M  V30 5 1 3 6
M  V30 6 1 3 7 CFG=1
M  V30 7 2 6 8
M  V30 8 1 7 9
M  V30 9 2 9 10
M  V30 10 1 9 11
M  V30 11 1 10 12
M  V30 12 2 11 13
M  V30 13 2 12 14
M  V30 14 1 14 15
M  V30 15 1 15 16
M  V30 16 1 16 17
M  V30 17 1 17 18
M  V30 18 1 18 19
M  V30 19 1 18 20
M  V30 20 2 19 21
M  V30 21 1 19 22
M  V30 22 1 21 23
M  V30 23 2 22 24
M  V30 24 2 23 25
M  V30 25 1 5 6
M  V30 26 1 13 14
M  V30 27 1 24 25
M  V30 END BOND
M  V30 BEGIN COLLECTION
M  V30 MDLV30/STERAC1 ATOMS=(1 3)
M  V30 END COLLECTION
M  V30 END CTAB
M  END
>  <Molecule Name>


>  <status>
-

>  <cas>
122320-73-4

>  <name>
ROSIGLITAZONE

>  <ID>
1287

>  <Smiles>
CN(CCOc1ccc(CC(C(N2)=O)SC2=O)cc1)c1ncccc1

$$$$

Actelion Java MolfileCreator 2.0

  0  0  0  0  0  0              0 V3000
M  V30 BEGIN CTAB
M  V30 COUNTS 25 27 0 0 0
M  V30 BEGIN ATOM
M  V30 1 S 7.8987 0.0054 0.0 0
M  V30 2 C 8.8769 -0.2024 0.0 0
M  V30 3 C 7.7942 0.9999 0.0 0 CFG=2
M  V30 4 O 9.2836 -1.1159 0.0 0
M  V30 5 N 9.3769 0.6635 0.0 0
M  V30 6 C 8.7077 1.4067 0.0 0
M  V30 7 C 6.9282 1.4999 0.0 0
M  V30 8 O 8.9156 2.3848 0.0 0
M  V30 9 C 6.0621 0.9999 0.0 0
M  V30 10 C 5.1961 1.4999 0.0 0
M  V30 11 C 6.0621 0.0 0.0 0
M  V30 12 C 4.3301 0.9999 0.0 0
M  V30 13 C 5.1961 -0.5 0.0 0
M  V30 14 C 4.3301 0.0 0.0 0
M  V30 15 O 3.4641 -0.5 0.0 0
M  V30 16 C 2.598 0.0 0.0 0
M  V30 17 C 1.732 -0.5 0.0 0
M  V30 18 N 0.866 0.0 0.0 0
M  V30 19 C 0.866 1.0 0.0 0
M  V30 20 C 0.0 -0.5 0.0 0
M  V30 21 N 1.732 1.4999 0.0 0
M  V30 22 C 0.0 1.4999 0.0 0
M  V30 23 C 1.732 2.5 0.0 0
M  V30 24 C 0.0 2.5 0.0 0
M  V30 25 C 0.866 3.0 0.0 0
M  V30 END ATOM
M  V30 BEGIN BOND
M  V30 1 1 1 2
M  V30 2 1 3 1
M  V30 3 2 2 4
M  V30 4 1 2 5
M  V30 5 1 3 6
M  V30 6 1 3 7 CFG=1
M  V30 7 2 6 8
M  V30 8 1 7 9
M  V30 9 2 9 10
M  V30 10 1 9 11
M  V30 11 1 10 12
M  V30 12 2 11 13
M  V30 13 2 12 14
M  V30 14 1 14 15
M  V30 15 1 15 16
M  V30 16 1 16 17
M  V30 17 1 17 18
M  V30 18 1 18 19
M  V30 19 1 18 20
M  V30 20 2 19 21
M  V30 21 1 19 22
M  V30 22 1 21 23
M  V30 23 2 22 24
M  V30 24 2 23 25
M  V30 25 1 5 6
M  V30 26 1 13 14
M  V30 27 1 24 25
M  V30 END BOND
M  V30 BEGIN COLLECTION
M  V30 MDLV30/STERAC1 ATOMS=(1 3)
M  V30 END COLLECTION
M  V30 END CTAB
M  END
>  <Molecule Name>


>  <status>
-

>  <cas>
122320-73-4

>  <name>
ROSIGLITAZONE

>  <ID>
1288

>  <Smiles>
CN(CCOc1ccc(CC(C(N2)=O)SC2=O)cc1)c1ncccc1

$$$$

Actelion Java MolfileCreator 2.0

  0  0  0  0  0  0              0 V3000
M  V30 BEGIN CTAB
M  V30 COUNTS 22 22 0 0 0
M  V30 BEGIN ATOM
M  V30 1 O 6.0621 1.0 0.0 0
M  V30 2 C 6.0621 0.0 0.0 0
M  V30 3 O 6.9282 -0.5 0.0 0
M  V30 4 C 5.1961 -0.5 0.0 0
M  V30 5 C 6.9282 -1.4999 0.0 0
M  V30 6 C 4.3301 0.0 0.0 0
M  V30 7 C 5.1961 -1.4999 0.0 0
M  V30 8 C 7.7942 -2.0 0.0 0
M  V30 9 C 3.4641 -0.5 0.0 0 CFG=1
M  V30 10 C 4.3301 -1.9999 0.0 0 CFG=1
M  V30 11 O 2.598 0.0 0.0 0
M  V30 12 C 3.4641 -1.4999 0.0 0 CFG=1
M  V30 13 N 4.3301 -3.0 0.0 0
M  V30 14 C 2.598 0.9999 0.0 0
M  V30 15 N 2.598 -1.9999 0.0 0
M  V30 16 C 3.4641 1.4999 0.0 0
M  V30 17 C 1.732 1.4999 0.0 0
M  V30 18 C 1.732 -1.4999 0.0 0
M  V30 19 C 4.3301 1.0 0.0 0
M  V30 20 C 1.732 2.4999 0.0 0
M  V30 21 O 1.732 -0.5 0.0 0
M  V30 22 C 0.866 -1.9999 0.0 0
M  V30 END ATOM
M  V30 BEGIN BOND
M  V30 1 2 1 2
M  V30 2 1 2 3
M  V30 3 1 2 4
M  V30 4 1 3 5
M  V30 5 2 4 6
M  V30 6 1 4 7
M  V30 7 1 5 8
M  V30 8 1 9 6
M  V30 9 1 10 7
M  V30 10 1 9 11 CFG=3
M  V30 11 1 12 9
M  V30 12 1 10 13 CFG=3
M  V30 13 1 11 14
M  V30 14 1 12 15 CFG=1
M  V30 15 1 14 16
M  V30 16 1 14 17
M  V30 17 1 15 18
M  V30 18 1 16 19
M  V30 19 1 17 20
M  V30 20 2 18 21
M  V30 21 1 18 22
M  V30 22 1 10 12
M  V30 END BOND
M  V30 BEGIN COLLECTION
M  V30 MDLV30/STERAC1 ATOMS=(3 9 10 12)
M  V30 END COLLECTION
M  V30 END CTAB
M  END
>  <Molecule Name>


>  <status>
-

>  <cas>
196618-13-0

>  <name>
OSELTAMIVIR

>  <ID>
1289

>  <Smiles>
CCC(CC)O[C@@H]([C@@H]([C@H](C1)N)NC(C)=O)C=C1C(OCC)=O

$$$$

Actelion Java MolfileCreator 2.0

  0  0  0  0  0  0              0 V3000
M  V30 BEGIN CTAB
M  V30 COUNTS 21 24 0 0 0
M  V30 BEGIN ATOM
M  V30 1 O 4.2407 1.4782 0.0 0
M  V30 2 C 3.9265 0.0 0.0 0
M  V30 3 C 5.7437 1.6362 0.0 0 CFG=2
M  V30 4 C 2.6176 -0.7556 0.0 0
M  V30 5 C 5.2353 -0.7556 0.0 0
M  V30 6 C 6.3584 0.2556 0.0 0 CFG=2
M  V30 7 C 6.632 2.8589 0.0 0
M  V30 8 O 1.3088 0.0 0.0 0
M  V30 9 C 2.6176 -2.2669 0.0 0
M  V30 10 C 5.2353 -2.2669 0.0 0
M  V30 11 C 7.8997 0.2456 0.0 0
M  V30 12 C 7.8167 -0.3568 0.0 0
M  V30 13 C 8.1351 2.7009 0.0 0 CFG=2
M  V30 14 C 0.0 -0.7556 0.0 0
M  V30 15 C 3.9265 -3.0226 0.0 0
M  V30 16 C 6.4648 -3.1616 0.0 0
M  V30 17 C 8.7498 1.3203 0.0 0
M  V30 18 C 8.5422 -1.4008 0.0 0
M  V30 19 O 9.0234 3.9236 0.0 0
M  V30 20 N 7.9275 -2.7814 0.0 0
M  V30 21 C 8.9047 -3.9343 0.0 0
M  V30 END ATOM
M  V30 BEGIN BOND
M  V30 1 1 1 2
M  V30 2 1 3 1 CFG=1
M  V30 3 2 2 4
M  V30 4 1 2 5
M  V30 5 1 6 3
M  V30 6 1 3 7
M  V30 7 1 4 8
M  V30 8 1 4 9
M  V30 9 2 5 10
M  V30 10 1 6 11 CFG=1
M  V30 11 1 6 12
M  V30 12 1 13 7
M  V30 13 1 8 14
M  V30 14 2 9 15
M  V30 15 1 10 16
M  V30 16 2 11 17
M  V30 17 1 12 18
M  V30 18 1 13 19 CFG=1
M  V30 19 1 16 20
M  V30 20 1 20 21
M  V30 21 1 5 6
M  V30 22 1 10 15
M  V30 23 1 13 17
M  V30 24 1 18 20
M  V30 END BOND
M  V30 BEGIN COLLECTION
M  V30 MDLV30/STERAC1 ATOMS=(3 3 6 13)
M  V30 END COLLECTION
M  V30 END CTAB
M  END
>  <Molecule Name>


>  <status>
-

>  <cas>
357-70-0

>  <name>
GALANTAMINE

>  <ID>
1290

>  <Smiles>
CN(CC[C@]1([C@H](C2)O3)C=C[C@@H]2O)Cc(cc2)c1c3c2OC

$$$$
_c001
Actelion Java MolfileCreator 2.0

  0  0  0  0  0  0              0 V3000
M  V30 BEGIN CTAB
M  V30 COUNTS 77 80 0 0 0
M  V30 BEGIN ATOM
M  V30 1 O 22.3651 1.2961 0.0 0
M  V30 2 C 23.5938 0.6171 0.0 0
M  V30 3 N 25.009 1.2812 0.0 0
M  V30 4 C 23.6438 -0.799 0.0 0 CFG=1
M  V30 5 C 26.0447 0.4557 0.0 0 CFG=1
M  V30 6 C 25.4529 2.7021 0.0 0
M  V30 7 N 23.0016 -1.8172 0.0 0
M  V30 8 C 25.1972 -0.8497 0.0 0 CFG=1
M  V30 9 C 25.8195 -1.114 0.0 0
M  V30 10 C 27.372 1.2028 0.0 0 CFG=1
M  V30 11 C 26.9571 2.6496 0.0 0
M  V30 12 C 21.4334 -2.1953 0.0 0
M  V30 13 O 25.8194 -2.4001 0.0 0
M  V30 14 C 26.4971 0.0122 0.0 0
M  V30 15 O 26.6768 -2.2386 0.0 0
M  V30 16 N 24.2974 -1.344 0.0 0
M  V30 17 O 28.7863 0.688 0.0 0
M  V30 18 O 20.5267 -1.1024 0.0 0
M  V30 19 C 21.1421 -3.5709 0.0 0 CFG=2
M  V30 20 C 27.7937 -0.1276 0.0 0
M  V30 21 C 23.5055 0.0073 0.0 0 CFG=2
M  V30 22 N 22.3281 -4.4975 0.0 0
M  V30 23 C 19.7106 -4.036 0.0 0 CFG=1
M  V30 24 N 28.2841 -1.5506 0.0 0
M  V30 25 N 24.3304 1.3441 0.0 0
M  V30 26 C 22.0728 0.256 0.0 0 CFG=1
M  V30 27 C 23.6316 -3.7449 0.0 0
M  V30 28 O 18.5921 -3.0288 0.0 0
M  V30 29 C 19.3977 -5.5082 0.0 0 CFG=2
M  V30 30 C 23.7292 2.7067 0.0 0
M  V30 31 O 21.7463 1.8527 0.0 0
M  V30 32 C 20.8549 -0.7443 0.0 0
M  V30 33 O 24.9844 -4.4047 0.0 0
M  V30 34 C 23.4727 -2.307 0.0 0 CFG=2
M  V30 35 O 17.9662 -5.9733 0.0 0
M  V30 36 C 20.5162 -6.5153 0.0 0
M  V30 37 C 24.663 3.8963 0.0 0
M  V30 38 C 19.5315 0.0413 0.0 0 CFG=1
M  V30 39 N 21.9802 -1.7726 0.0 0
M  V30 40 C 24.2972 -0.9689 0.0 0
M  V30 41 C 20.2033 -7.9876 0.0 0
M  V30 42 C 21.9477 -6.0502 0.0 0
M  V30 43 N 24.0508 5.2713 0.0 0
M  V30 44 N 18.2487 -0.7525 0.0 0
M  V30 45 C 19.6572 1.5014 0.0 0
M  V30 46 C 21.3931 -0.5682 0.0 0
M  V30 47 C 21.9784 -0.4206 0.0 0
M  V30 48 C 23.1328 0.2827 0.0 0 CFG=1
M  V30 49 C 21.3218 -8.9947 0.0 0
M  V30 50 C 23.0662 -7.0574 0.0 0
M  V30 51 C 16.9452 0.0 0.0 0
M  V30 52 O 18.4711 2.4281 0.0 0
M  V30 53 N 21.0467 1.9738 0.0 0
M  V30 54 O 19.8478 -0.5901 0.0 0
M  V30 55 C 22.1231 0.8598 0.0 0 CFG=2
M  V30 56 O 23.5452 1.6768 0.0 0
M  V30 57 C 22.7533 -8.5296 0.0 0
M  V30 58 O 16.9452 1.5051 0.0 0
M  V30 59 C 15.6417 -0.7525 0.0 0
M  V30 60 C 23.5677 1.0515 0.0 0 CFG=1
M  V30 61 O 23.8718 -9.5367 0.0 0
M  V30 62 C 14.3383 0.0 0.0 0
M  V30 63 O 24.4659 -0.213 0.0 0
M  V30 64 C 24.3332 2.3607 0.0 0
M  V30 65 C 13.0348 -0.7525 0.0 0
M  V30 66 C 11.7313 0.0 0.0 0
M  V30 67 C 10.4278 -0.7525 0.0 0
M  V30 68 C 9.1243 0.0 0.0 0
M  V30 69 C 7.8208 -0.7525 0.0 0
M  V30 70 C 6.5174 0.0 0.0 0
M  V30 71 C 5.2139 -0.7525 0.0 0 CFG=1
M  V30 72 C 3.9104 0.0 0.0 0
M  V30 73 C 5.2139 -2.2576 0.0 0
M  V30 74 C 2.6069 -0.7525 0.0 0 CFG=1
M  V30 75 C 1.3034 0.0 0.0 0
M  V30 76 C 2.6069 -2.2576 0.0 0
M  V30 77 C 0.0 -0.7525 0.0 0
M  V30 END ATOM
M  V30 BEGIN BOND
M  V30 1 2 1 2
M  V30 2 1 2 3
M  V30 3 1 4 2
M  V30 4 1 5 3 CFG=3
M  V30 5 1 3 6
M  V30 6 1 4 7 CFG=3
M  V30 7 1 8 4
M  V30 8 1 5 9
M  V30 9 1 10 5
M  V30 10 1 6 11
M  V30 11 1 7 12
M  V30 12 1 8 13 CFG=3
M  V30 13 1 8 14
M  V30 14 2 9 15
M  V30 15 1 9 16
M  V30 16 1 10 17 CFG=1
M  V30 17 2 12 18
M  V30 18 1 19 12
M  V30 19 1 14 20
M  V30 20 1 21 16
M  V30 21 1 19 22 CFG=3
M  V30 22 1 23 19
M  V30 23 1 20 24
M  V30 24 1 21 25 CFG=1
M  V30 25 1 26 21
M  V30 26 1 22 27
M  V30 27 1 23 28 CFG=3
M  V30 28 1 29 23
M  V30 29 1 25 30
M  V30 30 1 26 31 CFG=3
M  V30 31 1 26 32
M  V30 32 2 27 33
M  V30 33 1 34 27
M  V30 34 1 29 35 CFG=1
M  V30 35 1 29 36
M  V30 36 1 30 37
M  V30 37 1 38 32
M  V30 38 1 34 39 CFG=3
M  V30 39 1 34 40
M  V30 40 2 36 41
M  V30 41 1 36 42
M  V30 42 1 37 43
M  V30 43 1 38 44 CFG=1
M  V30 44 1 38 45
M  V30 45 1 39 46
M  V30 46 1 39 47
M  V30 47 1 48 40
M  V30 48 1 41 49
M  V30 49 2 42 50
M  V30 50 1 44 51
M  V30 51 2 45 52
M  V30 52 1 45 53
M  V30 53 2 46 54
M  V30 54 1 55 46
M  V30 55 1 48 56 CFG=1
M  V30 56 2 49 57
M  V30 57 2 51 58
M  V30 58 1 51 59
M  V30 59 1 60 55
M  V30 60 1 57 61
M  V30 61 1 59 62
M  V30 62 1 60 63 CFG=3
M  V30 63 1 60 64
M  V30 64 1 62 65
M  V30 65 1 65 66
M  V30 66 1 66 67
M  V30 67 1 67 68
M  V30 68 1 68 69
M  V30 69 1 69 70
M  V30 70 1 71 70
M  V30 71 1 71 72
M  V30 72 1 71 73 CFG=3
M  V30 73 1 74 72
M  V30 74 1 74 75
M  V30 75 1 74 76 CFG=3
M  V30 76 1 75 77
M  V30 77 1 10 11
M  V30 78 1 47 48
M  V30 79 1 50 57
M  V30 80 1 55 53 CFG=3
M  V30 END BOND
M  V30 BEGIN COLLECTION
M  V30 MDLV30/STERAC1 ATOMS=(16 4 5 8 10 19 21 23 26 29 34 38 48 55 60 71 74)
M  V30 END COLLECTION
M  V30 END CTAB
M  END
>  <Molecule Name>
_c001

>  <status>
-

>  <cas>
162808-62-0

>  <name>
CASPOFUNGIN

>  <ID>
1291

>  <Smiles>
CC[C@@H](C)C[C@@H](C)CCCCCCCCC(N[C@H](C[C@@H]([C@@H](NCCN)NC([C@@H]([C@@H](CC1)O)N1C([C@H]([C@H](CCN)O)NC([C@@H]([C@H]([C@@H](c(cc1)ccc1O)O)O)NC([C@@H](C[C@@H](C1)O)N1C([C@@H]([C@H](C)O)N1)=O)=O)=O)=O)=O)O)C1=O)=O

$$$$

Actelion Java MolfileCreator 2.0

  0  0  0  0  0  0              0 V3000
M  V30 BEGIN CTAB
M  V30 COUNTS 37 41 0 0 0
M  V30 BEGIN ATOM
M  V30 1 O 2.598 0.0 0.0 0
M  V30 2 C 1.732 -0.5 0.0 0
M  V30 3 N 0.866 0.0 0.0 0
M  V30 4 C 1.732 -1.5 0.0 0
M  V30 5 C 0.0 -0.5 0.0 0
M  V30 6 C 0.866 -1.9999 0.0 0
M  V30 7 C 2.598 -1.9999 0.0 0
M  V30 8 C -0.866 0.0 0.0 0
M  V30 9 C 0.0 -1.4999 0.0 0
M  V30 10 C 0.866 -2.9999 0.0 0
M  V30 11 C 2.598 -2.9999 0.0 0
M  V30 12 C -1.732 -0.4999 0.0 0
M  V30 13 C -0.866 -1.9999 0.0 0
M  V30 14 C 1.732 -3.4999 0.0 0
M  V30 15 N -2.598 0.0 0.0 0
M  V30 16 C -1.732 -1.4999 0.0 0
M  V30 17 C 1.732 -4.5 0.0 0
M  V30 18 C -3.4641 -0.4999 0.0 0
M  V30 19 C -2.598 -1.9999 0.0 0
M  V30 20 N 2.598 -4.9999 0.0 0
M  V30 21 N -4.3301 0.0 0.0 0
M  V30 22 N -3.4641 -1.4999 0.0 0
M  V30 23 C 2.598 -5.9999 0.0 0
M  V30 24 C 3.4641 -4.5 0.0 0
M  V30 25 C -5.1961 -0.4999 0.0 0
M  V30 26 C -4.3301 -1.9999 0.0 0
M  V30 27 C 3.4641 -6.4999 0.0 0
M  V30 28 C 4.3301 -5.0 0.0 0
M  V30 29 C -6.0621 0.0 0.0 0
M  V30 30 C -5.1961 -1.4999 0.0 0
M  V30 31 N 4.3301 -5.9999 0.0 0
M  V30 32 C -6.0621 1.0 0.0 0
M  V30 33 C -6.9282 -0.4999 0.0 0
M  V30 34 C 5.1961 -6.4999 0.0 0
M  V30 35 N -6.9282 1.5 0.0 0
M  V30 36 C -7.7942 0.0 0.0 0
M  V30 37 C -7.7942 1.0 0.0 0
M  V30 END ATOM
M  V30 BEGIN BOND
M  V30 1 2 1 2
M  V30 2 1 2 3
M  V30 3 1 2 4
M  V30 4 1 3 5
M  V30 5 2 4 6
M  V30 6 1 4 7
M  V30 7 2 5 8
M  V30 8 1 5 9
M  V30 9 1 6 10
M  V30 10 2 7 11
M  V30 11 1 8 12
M  V30 12 2 9 13
M  V30 13 2 10 14
M  V30 14 1 12 15
M  V30 15 2 12 16
M  V30 16 1 14 17
M  V30 17 1 15 18
M  V30 18 1 16 19
M  V30 19 1 17 20
M  V30 20 2 18 21
M  V30 21 1 18 22
M  V30 22 1 20 23
M  V30 23 1 20 24
M  V30 24 1 21 25
M  V30 25 2 22 26
M  V30 26 1 23 27
M  V30 27 1 24 28
M  V30 28 1 25 29
M  V30 29 2 25 30
M  V30 30 1 27 31
M  V30 31 2 29 32
M  V30 32 1 29 33
M  V30 33 1 31 34
M  V30 34 1 32 35
M  V30 35 2 33 36
M  V30 36 2 35 37
M  V30 37 1 11 14
M  V30 38 1 13 16
M  V30 39 1 26 30
M  V30 40 1 28 31
M  V30 41 1 36 37
M  V30 END BOND
M  V30 END CTAB
M  END
>  <Molecule Name>


>  <status>
-

>  <cas>
152459-95-5

>  <name>
IMATINIB

>  <ID>
1292

>  <Smiles>
Cc(ccc(NC(c1ccc(CN2CCN(C)CC2)cc1)=O)c1)c1Nc1nc(-c2cnccc2)ccn1

$$$$

Actelion Java MolfileCreator 2.0

  0  0  0  0  0  0              0 V3000
M  V30 BEGIN CTAB
M  V30 COUNTS 27 30 0 0 0
M  V30 BEGIN ATOM
M  V30 1 Cl 0.866 0.9999 0.0 0
M  V30 2 C 1.732 1.4999 0.0 0
M  V30 3 C 2.598 1.0 0.0 0
M  V30 4 C 1.732 2.4999 0.0 0
M  V30 5 C 3.4641 1.5 0.0 0
M  V30 6 C 2.598 0.0 0.0 0 CFG=1
M  V30 7 C 2.598 3.0 0.0 0
M  V30 8 C 3.4641 2.5 0.0 0
M  V30 9 O 1.732 -0.5 0.0 0
M  V30 10 C 3.4641 -0.5 0.0 0
M  V30 11 Cl 2.598 4.0 0.0 0
M  V30 12 C 0.866 0.0 0.0 0
M  V30 13 N 4.3301 0.0 0.0 0
M  V30 14 C 0.0 -0.5 0.0 0
M  V30 15 C 5.2436 -0.4067 0.0 0
M  V30 16 C 4.4346 0.9945 0.0 0
M  V30 17 C -0.9135 -0.0932 0.0 0
M  V30 18 C -0.1045 -1.4945 0.0 0
M  V30 19 N 5.9128 0.3364 0.0 0
M  V30 20 C 5.4128 1.2024 0.0 0
M  V30 21 C -1.5826 -0.8364 0.0 0
M  V30 22 C -1.2225 0.8577 0.0 0
M  V30 23 S -1.0826 -1.7024 0.0 0
M  V30 24 C -2.5608 -0.6284 0.0 0
M  V30 25 C -2.2007 1.0657 0.0 0
M  V30 26 Cl -3.2299 -1.3716 0.0 0
M  V30 27 C -2.8698 0.3225 0.0 0
M  V30 END ATOM
M  V30 BEGIN BOND
M  V30 1 1 1 2
M  V30 2 2 2 3
M  V30 3 1 2 4
M  V30 4 1 3 5
M  V30 5 1 6 3
M  V30 6 2 4 7
M  V30 7 2 5 8
M  V30 8 1 6 9 CFG=3
M  V30 9 1 6 10
M  V30 10 1 7 11
M  V30 11 1 9 12
M  V30 12 1 10 13
M  V30 13 1 12 14
M  V30 14 1 13 15
M  V30 15 1 13 16
M  V30 16 1 14 17
M  V30 17 2 14 18
M  V30 18 2 15 19
M  V30 19 2 16 20
M  V30 20 2 17 21
M  V30 21 1 17 22
M  V30 22 1 18 23
M  V30 23 1 21 24
M  V30 24 2 22 25
M  V30 25 1 24 26
M  V30 26 2 24 27
M  V30 27 1 7 8
M  V30 28 1 19 20
M  V30 29 1 21 23
M  V30 30 1 25 27
M  V30 END BOND
M  V30 BEGIN COLLECTION
M  V30 MDLV30/STERAC1 ATOMS=(1 6)
M  V30 END COLLECTION
M  V30 END CTAB
M  END
>  <Molecule Name>


>  <status>
-

>  <cas>
99592-32-2

>  <name>
SERTACONAZOLE

>  <ID>
1293

>  <Smiles>
Clc1cc(Cl)c(C(Cn2cncc2)OCc2csc3c2cccc3Cl)cc1

$$$$

Actelion Java MolfileCreator 2.0

  0  0  0  0  0  0              0 V3000
M  V30 BEGIN CTAB
M  V30 COUNTS 27 30 0 0 0
M  V30 BEGIN ATOM
M  V30 1 Cl 0.866 0.9999 0.0 0
M  V30 2 C 1.732 1.4999 0.0 0
M  V30 3 C 2.598 1.0 0.0 0
M  V30 4 C 1.732 2.4999 0.0 0
M  V30 5 C 3.4641 1.5 0.0 0
M  V30 6 C 2.598 0.0 0.0 0 CFG=1
M  V30 7 C 2.598 3.0 0.0 0
M  V30 8 C 3.4641 2.5 0.0 0
M  V30 9 O 1.732 -0.5 0.0 0
M  V30 10 C 3.4641 -0.5 0.0 0
M  V30 11 Cl 2.598 4.0 0.0 0
M  V30 12 C 0.866 0.0 0.0 0
M  V30 13 N 4.3301 0.0 0.0 0
M  V30 14 C 0.0 -0.5 0.0 0
M  V30 15 C 5.2436 -0.4067 0.0 0
M  V30 16 C 4.4346 0.9945 0.0 0
M  V30 17 C -0.9135 -0.0932 0.0 0
M  V30 18 C -0.1045 -1.4945 0.0 0
M  V30 19 N 5.9128 0.3364 0.0 0
M  V30 20 C 5.4128 1.2024 0.0 0
M  V30 21 C -1.5826 -0.8364 0.0 0
M  V30 22 C -1.2225 0.8577 0.0 0
M  V30 23 S -1.0826 -1.7024 0.0 0
M  V30 24 C -2.5608 -0.6284 0.0 0
M  V30 25 C -2.2007 1.0657 0.0 0
M  V30 26 Cl -3.2299 -1.3716 0.0 0
M  V30 27 C -2.8698 0.3225 0.0 0
M  V30 END ATOM
M  V30 BEGIN BOND
M  V30 1 1 1 2
M  V30 2 2 2 3
M  V30 3 1 2 4
M  V30 4 1 3 5
M  V30 5 1 6 3
M  V30 6 2 4 7
M  V30 7 2 5 8
M  V30 8 1 6 9 CFG=3
M  V30 9 1 6 10
M  V30 10 1 7 11
M  V30 11 1 9 12
M  V30 12 1 10 13
M  V30 13 1 12 14
M  V30 14 1 13 15
M  V30 15 1 13 16
M  V30 16 1 14 17
M  V30 17 2 14 18
M  V30 18 2 15 19
M  V30 19 2 16 20
M  V30 20 2 17 21
M  V30 21 1 17 22
M  V30 22 1 18 23
M  V30 23 1 21 24
M  V30 24 2 22 25
M  V30 25 1 24 26
M  V30 26 2 24 27
M  V30 27 1 7 8
M  V30 28 1 19 20
M  V30 29 1 21 23
M  V30 30 1 25 27
M  V30 END BOND
M  V30 BEGIN COLLECTION
M  V30 MDLV30/STERAC1 ATOMS=(1 6)
M  V30 END COLLECTION
M  V30 END CTAB
M  END
>  <Molecule Name>


>  <status>
-

>  <cas>
99592-32-2

>  <name>
SERTACONAZOLE

>  <ID>
1294

>  <Smiles>
Clc1cc(Cl)c(C(Cn2cncc2)OCc2csc3c2cccc3Cl)cc1

$$$$

Actelion Java MolfileCreator 2.0

  0  0  0  0  0  0              0 V3000
M  V30 BEGIN CTAB
M  V30 COUNTS 26 30 0 0 0
M  V30 BEGIN ATOM
M  V30 1 S 4.3776 -0.0932 0.0 0
M  V30 2 C 3.4641 -0.5 0.0 0
M  V30 3 C 5.0467 -0.8364 0.0 0
M  V30 4 C 3.7043 -1.4161 0.0 0
M  V30 5 C 2.598 0.0 0.0 0
M  V30 6 C 4.5467 -1.7024 0.0 0
M  V30 7 O 2.598 1.0 0.0 0
M  V30 8 C 2.598 -1.0 0.0 0
M  V30 9 C 1.732 -0.5 0.0 0
M  V30 10 S 1.8443 -1.6697 0.0 0
M  V30 11 C 3.3392 -1.6269 0.0 0
M  V30 12 O 1.6201 -1.3371 0.0 0
M  V30 13 O 0.866 0.0 0.0 0
M  V30 14 C 2.098 -2.5388 0.0 0
M  V30 15 C 3.098 -2.5388 0.0 0
M  V30 16 C 0.0 -0.5 0.0 0 CFG=2
M  V30 17 C 0.0129 -1.5239 0.0 0
M  V30 18 C -0.8803 0.0231 0.0 0
M  V30 19 C -1.2085 -2.1319 0.0 0 CFG=1
M  V30 20 C -2.0175 -0.7306 0.0 0 CFG=2
M  V30 21 N -1.104 -1.1374 0.0 0 CHG=1
M  V30 22 C -2.1866 -2.3398 0.0 0 CFG=2
M  V30 23 C -2.6866 -1.4738 0.0 0 CFG=1
M  V30 24 C -0.2114 -1.1079 0.0 0
M  V30 25 C -0.6322 -0.3792 0.0 0
M  V30 26 O -3.1866 -2.3398 0.0 0
M  V30 END ATOM
M  V30 BEGIN BOND
M  V30 1 1 1 2
M  V30 2 1 1 3
M  V30 3 2 2 4
M  V30 4 1 2 5
M  V30 5 2 3 6
M  V30 6 1 5 7
M  V30 7 1 5 8
M  V30 8 1 5 9
M  V30 9 1 8 10
M  V30 10 2 8 11
M  V30 11 2 9 12
M  V30 12 1 9 13
M  V30 13 1 10 14
M  V30 14 1 11 15
M  V30 15 1 16 13 CFG=3
M  V30 16 1 16 17
M  V30 17 1 16 18
M  V30 18 1 19 17
M  V30 19 1 20 18
M  V30 20 1 19 21 CFG=1
M  V30 21 1 22 19
M  V30 22 1 23 20
M  V30 23 1 21 24
M  V30 24 1 21 25
M  V30 25 1 22 26 CFG=1
M  V30 26 1 4 6
M  V30 27 2 14 15
M  V30 28 1 20 21 CFG=1
M  V30 29 1 22 23
M  V30 30 1 23 26 CFG=1
M  V30 END BOND
M  V30 BEGIN COLLECTION
M  V30 MDLV30/STEABS ATOMS=(5 16 19 20 22 23)
M  V30 END COLLECTION
M  V30 END CTAB
M  END
>  <Molecule Name>


>  <status>
-

>  <cas>
186691-13-4

>  <name>
TIOTROPIUM

>  <ID>
1295

>  <Smiles>
C[N+]1(C)[C@@H](C2)[C@@H]3O[C@@H]3[C@H]1C[C@H]2OC(C(c1cccs1)(c1cccs1)O)=O

$$$$

Actelion Java MolfileCreator 2.0

  0  0  0  0  0  0              0 V3000
M  V30 BEGIN CTAB
M  V30 COUNTS 10 9 0 0 0
M  V30 BEGIN ATOM
M  V30 1 O 4.3301 0.9999 0.0 0
M  V30 2 C 4.3301 0.0 0.0 0
M  V30 3 O 5.1961 -0.5 0.0 0
M  V30 4 C 3.4641 -0.5 0.0 0
M  V30 5 C 6.0621 0.0 0.0 0
M  V30 6 C 2.598 0.0 0.0 0
M  V30 7 C 1.732 -0.5 0.0 0
M  V30 8 O 1.732 -1.5 0.0 0
M  V30 9 C 0.866 0.0 0.0 0
M  V30 10 N 0.0 -0.5 0.0 0
M  V30 END ATOM
M  V30 BEGIN BOND
M  V30 1 2 1 2
M  V30 2 1 2 3
M  V30 3 1 2 4
M  V30 4 1 3 5
M  V30 5 1 4 6
M  V30 6 1 6 7
M  V30 7 2 7 8
M  V30 8 1 7 9
M  V30 9 1 9 10
M  V30 END BOND
M  V30 END CTAB
M  END
>  <Molecule Name>


>  <status>
DISCONTINUED

>  <cas>
33320-16-0

>  <name>
METHYL AMINOLEVULINATE

>  <ID>
1296

>  <Smiles>
COC(CCC(CN)=O)=O

$$$$

Actelion Java MolfileCreator 2.0

  0  0  0  0  0  0              0 V3000
M  V30 BEGIN CTAB
M  V30 COUNTS 31 33 0 0 0
M  V30 BEGIN ATOM
M  V30 1 O 10.9457 -0.6009 0.0 0
M  V30 2 C 11.6148 0.1422 0.0 0
M  V30 3 N 12.593 -0.0657 0.0 0
M  V30 4 C 11.3058 1.0932 0.0 0
M  V30 5 C 13.2621 0.6774 0.0 0
M  V30 6 C 11.9749 1.8364 0.0 0
M  V30 7 C 10.3923 1.4999 0.0 0
M  V30 8 N 12.9531 1.6284 0.0 0
M  V30 9 N 14.2402 0.4695 0.0 0
M  V30 10 N 11.4749 2.7024 0.0 0
M  V30 11 C 10.4968 2.4945 0.0 0
M  V30 12 C 9.5262 0.9999 0.0 0
M  V30 13 C 8.6602 1.4999 0.0 0
M  V30 14 C 7.7942 0.9999 0.0 0
M  V30 15 C 6.9282 1.4999 0.0 0
M  V30 16 C 7.7942 0.0 0.0 0
M  V30 17 C 6.0621 0.9999 0.0 0
M  V30 18 C 6.9282 -0.5 0.0 0
M  V30 19 C 6.0621 0.0 0.0 0
M  V30 20 C 5.1961 -0.5 0.0 0
M  V30 21 O 5.1961 -1.4999 0.0 0
M  V30 22 N 4.3301 0.0 0.0 0
M  V30 23 C 3.4641 -0.5 0.0 0 CFG=2
M  V30 24 C 3.4641 -1.5 0.0 0
M  V30 25 C 2.598 0.0 0.0 0
M  V30 26 O 2.598 -1.9999 0.0 0
M  V30 27 O 4.3301 -2.0 0.0 0 CHG=-1
M  V30 28 C 1.732 -0.5 0.0 0
M  V30 29 C 0.866 0.0 0.0 0
M  V30 30 O 0.866 1.0 0.0 0
M  V30 31 O 0.0 -0.5 0.0 0 CHG=-1
M  V30 END ATOM
M  V30 BEGIN BOND
M  V30 1 2 1 2
M  V30 2 1 2 3
M  V30 3 1 2 4
M  V30 4 2 3 5
M  V30 5 2 4 6
M  V30 6 1 4 7
M  V30 7 1 5 8
M  V30 8 1 5 9
M  V30 9 1 6 10
M  V30 10 2 7 11
M  V30 11 1 7 12
M  V30 12 1 12 13
M  V30 13 1 13 14
M  V30 14 2 14 15
M  V30 15 1 14 16
M  V30 16 1 15 17
M  V30 17 2 16 18
M  V30 18 2 17 19
M  V30 19 1 19 20
M  V30 20 2 20 21
M  V30 21 1 20 22
M  V30 22 1 23 22 CFG=3
M  V30 23 1 23 24
M  V30 24 1 23 25
M  V30 25 2 24 26
M  V30 26 1 24 27
M  V30 27 1 25 28
M  V30 28 1 28 29
M  V30 29 2 29 30
M  V30 30 1 29 31
M  V30 31 1 6 8
M  V30 32 1 10 11
M  V30 33 1 18 19
M  V30 END BOND
M  V30 BEGIN COLLECTION
M  V30 MDLV30/STERAC1 ATOMS=(1 23)
M  V30 END COLLECTION
M  V30 END CTAB
M  END
>  <Molecule Name>


>  <status>
-

>  <cas>
137281-23-3

>  <name>
PEMETREXED

>  <ID>
1297

>  <Smiles>
NC(Nc1c2c(CCc(cc3)ccc3C(NC(CCC([O-])=O)C([O-])=O)=O)c[nH]1)=NC2=O

$$$$

Actelion Java MolfileCreator 2.0

  0  0  0  0  0  0              0 V3000
M  V30 BEGIN CTAB
M  V30 COUNTS 32 36 0 0 0
M  V30 BEGIN ATOM
M  V30 1 O 3.9357 0.0 0.0 0
M  V30 2 C 2.6238 -0.7574 0.0 0
M  V30 3 N 2.9974 -2.21 0.0 0
M  V30 4 C 1.3119 0.0 0.0 0
M  V30 5 C 1.3119 1.5148 0.0 0
M  V30 6 C 1.3119 -1.5148 0.0 0
M  V30 7 C 0.0 -0.7574 0.0 0 CFG=2
M  V30 8 C 2.6238 2.2723 0.0 0
M  V30 9 C 0.0 2.2723 0.0 0
M  V30 10 C 0.2984 -2.2958 0.0 0
M  V30 11 C 2.437 -2.3034 0.0 0
M  V30 12 C -1.3839 -0.1412 0.0 0
M  V30 13 C -0.3077 -2.2536 0.0 0
M  V30 14 C 2.6238 3.7871 0.0 0
M  V30 15 C 0.0 3.7871 0.0 0
M  V30 16 C 0.0 -3.7871 0.0 0
M  V30 17 C 2.6238 -3.7871 0.0 0
M  V30 18 N -2.3975 -1.267 0.0 0
M  V30 19 C -1.6401 -2.5789 0.0 0
M  V30 20 C 1.3119 4.5446 0.0 0
M  V30 21 C 1.3119 -4.5446 0.0 0
M  V30 22 C -3.9041 -1.1087 0.0 0
M  V30 23 C -4.5202 0.2752 0.0 0
M  V30 24 C -6.0268 0.4335 0.0 0
M  V30 25 C -6.9172 -0.792 0.0 0
M  V30 26 C -6.643 1.8174 0.0 0
M  V30 27 C -8.4238 -0.6336 0.0 0
M  V30 28 C -8.1495 1.9758 0.0 0
M  V30 29 C -9.04 0.7502 0.0 0
M  V30 30 C -9.5496 -1.6473 0.0 0
M  V30 31 O -10.5465 0.5918 0.0 0
M  V30 32 C -10.8615 -0.8898 0.0 0
M  V30 END ATOM
M  V30 BEGIN BOND
M  V30 1 2 1 2
M  V30 2 1 2 3
M  V30 3 1 2 4
M  V30 4 1 4 5
M  V30 5 1 4 6
M  V30 6 1 7 4 CFG=1
M  V30 7 2 5 8
M  V30 8 1 5 9
M  V30 9 2 6 10
M  V30 10 1 6 11
M  V30 11 1 7 12
M  V30 12 1 7 13
M  V30 13 1 8 14
M  V30 14 2 9 15
M  V30 15 1 10 16
M  V30 16 2 11 17
M  V30 17 1 12 18
M  V30 18 1 13 19
M  V30 19 2 14 20
M  V30 20 2 16 21
M  V30 21 1 18 22
M  V30 22 1 22 23
M  V30 23 1 23 24
M  V30 24 2 24 25
M  V30 25 1 24 26
M  V30 26 1 25 27
M  V30 27 2 26 28
M  V30 28 2 27 29
M  V30 29 1 27 30
M  V30 30 1 29 31
M  V30 31 1 30 32
M  V30 32 1 15 20
M  V30 33 1 17 21
M  V30 34 1 18 19
M  V30 35 1 28 29
M  V30 36 1 31 32
M  V30 END BOND
M  V30 BEGIN COLLECTION
M  V30 MDLV30/STERAC1 ATOMS=(1 7)
M  V30 END COLLECTION
M  V30 END CTAB
M  END
>  <Molecule Name>


>  <status>
-

>  <cas>
133099-04-4

>  <name>
DARIFENACIN

>  <ID>
1298

>  <Smiles>
NC(C(C1CN(CCc(cc2)cc3c2OCC3)CC1)(c1ccccc1)c1ccccc1)=O

$$$$

Actelion Java MolfileCreator 2.0

  0  0  0  0  0  0              0 V3000
M  V30 BEGIN CTAB
M  V30 COUNTS 27 31 0 0 0
M  V30 BEGIN ATOM
M  V30 1 O 0.866 0.0 0.0 0
M  V30 2 C 1.732 -0.5 0.0 0
M  V30 3 O 2.598 0.0 0.0 0
M  V30 4 N 1.732 -1.5 0.0 0
M  V30 5 C 3.4641 -0.4999 0.0 0 CFG=2
M  V30 6 C 0.866 -1.9999 0.0 0 CFG=2
M  V30 7 C 2.598 -2.0 0.0 0
M  V30 8 C 3.4641 -1.4999 0.0 0 CFG=2
M  V30 9 C 4.3301 0.0 0.0 0
M  V30 10 C 0.866 -2.9999 0.0 0
M  V30 11 C 0.0 -1.4999 0.0 0
M  V30 12 C 2.598 -3.0 0.0 0
M  V30 13 C 4.4201 -1.9063 0.0 0
M  V30 14 C 4.7631 -2.7499 0.0 0
M  V30 15 N 5.1961 -0.4999 0.0 0 CFG=1
M  V30 16 C 1.732 -3.5 0.0 0
M  V30 17 C 0.0 -3.4999 0.0 0
M  V30 18 C 0.0 -0.4999 0.0 0
M  V30 19 C -0.866 -1.9999 0.0 0
M  V30 20 C 5.07 -1.5312 0.0 0
M  V30 21 C 5.6291 -2.2499 0.0 0
M  V30 22 C 1.732 -4.5 0.0 0
M  V30 23 C 0.0 -4.4999 0.0 0
M  V30 24 C -0.866 0.0 0.0 0
M  V30 25 C -1.732 -1.4999 0.0 0
M  V30 26 C 0.866 -4.9999 0.0 0
M  V30 27 C -1.732 -0.4999 0.0 0
M  V30 END ATOM
M  V30 BEGIN BOND
M  V30 1 2 1 2
M  V30 2 1 2 3
M  V30 3 1 2 4
M  V30 4 1 5 3 CFG=1
M  V30 5 1 6 4
M  V30 6 1 4 7
M  V30 7 1 8 5
M  V30 8 1 5 9
M  V30 9 1 6 10
M  V30 10 1 6 11 CFG=3
M  V30 11 1 7 12
M  V30 12 1 8 13 CFG=1
M  V30 13 1 8 14
M  V30 14 1 15 9 CFG=3
M  V30 15 2 10 16
M  V30 16 1 10 17
M  V30 17 2 11 18
M  V30 18 1 11 19
M  V30 19 1 13 20
M  V30 20 1 14 21
M  V30 21 1 16 22
M  V30 22 2 17 23
M  V30 23 1 18 24
M  V30 24 2 19 25
M  V30 25 2 22 26
M  V30 26 2 24 27
M  V30 27 1 12 16
M  V30 28 1 15 20
M  V30 29 1 15 21
M  V30 30 1 23 26
M  V30 31 1 25 27
M  V30 END BOND
M  V30 BEGIN COLLECTION
M  V30 MDLV30/STEABS ATOMS=(2 8 15)
M  V30 MDLV30/STERAC1 ATOMS=(2 5 6)
M  V30 END COLLECTION
M  V30 END CTAB
M  END
>  <Molecule Name>


>  <status>
-

>  <cas>
242478-37-1

>  <name>
SOLIFENACIN

>  <ID>
1299

>  <Smiles>
O=C(N(CC1)[C@@H](c2ccccc2)c2c1cccc2)O[C@@H]1[C@H](CC2)CCN2C1

$$$$

Actelion Java MolfileCreator 2.0

  0  0  0  0  0  0              0 V3000
M  V30 BEGIN CTAB
M  V30 COUNTS 51 53 0 0 0
M  V30 BEGIN ATOM
M  V30 1 O 14.2894 6.0 0.0 0
M  V30 2 C 14.2894 4.4999 0.0 0
M  V30 3 O 12.9903 3.75 0.0 0
M  V30 4 N 15.5884 3.7499 0.0 0
M  V30 5 C 11.6913 4.5 0.0 0
M  V30 6 C 15.5884 2.2499 0.0 0 CFG=2
M  V30 7 C 14.2894 1.4999 0.0 0
M  V30 8 C 16.8874 1.4999 0.0 0
M  V30 9 O 12.9903 2.25 0.0 0
M  V30 10 N 14.2894 0.0 0.0 0
M  V30 11 C 16.1374 0.2009 0.0 0
M  V30 12 C 18.1865 0.7499 0.0 0
M  V30 13 C 17.6374 2.799 0.0 0
M  V30 14 N 12.9903 -0.75 0.0 0
M  V30 15 C 12.9903 -2.25 0.0 0
M  V30 16 C 11.6913 0.0 0.0 0
M  V30 17 C 14.2894 -3.0 0.0 0
M  V30 18 C 10.3923 -0.75 0.0 0 CFG=2
M  V30 19 C 14.2894 -4.5 0.0 0
M  V30 20 C 15.5884 -2.25 0.0 0
M  V30 21 O 9.0932 0.0 0.0 0
M  V30 22 C 10.3923 -2.2499 0.0 0 CFG=1
M  V30 23 C 15.5884 -5.25 0.0 0
M  V30 24 C 16.8874 -3.0 0.0 0
M  V30 25 N 9.0932 -3.0 0.0 0
M  V30 26 C 11.6913 -3.0 0.0 0
M  V30 27 C 16.8874 -4.5 0.0 0
M  V30 28 C 7.7942 -2.25 0.0 0
M  V30 29 C 11.6913 -4.5 0.0 0
M  V30 30 C 18.1865 -5.25 0.0 0
M  V30 31 O 7.7942 -0.75 0.0 0
M  V30 32 C 6.4951 -3.0 0.0 0 CFG=1
M  V30 33 C 12.9903 -5.25 0.0 0
M  V30 34 C 10.3923 -5.25 0.0 0
M  V30 35 N 18.1865 -6.75 0.0 0
M  V30 36 C 19.4855 -4.5 0.0 0
M  V30 37 N 5.1961 -2.25 0.0 0
M  V30 38 C 6.4951 -4.5 0.0 0
M  V30 39 C 12.9903 -6.75 0.0 0
M  V30 40 C 10.3923 -6.75 0.0 0
M  V30 41 C 19.4855 -7.5 0.0 0
M  V30 42 C 20.7846 -5.25 0.0 0
M  V30 43 C 5.1961 -0.75 0.0 0
M  V30 44 C 7.9951 -4.5 0.0 0
M  V30 45 C 6.4951 -6.0 0.0 0
M  V30 46 C 4.9951 -4.5 0.0 0
M  V30 47 C 11.6913 -7.4999 0.0 0
M  V30 48 C 20.7846 -6.75 0.0 0
M  V30 49 O 6.4951 0.0 0.0 0
M  V30 50 O 3.8971 0.0 0.0 0
M  V30 51 C 3.8971 1.4999 0.0 0
M  V30 END ATOM
M  V30 BEGIN BOND
M  V30 1 2 1 2
M  V30 2 1 2 3
M  V30 3 1 2 4
M  V30 4 1 3 5
M  V30 5 1 6 4 CFG=1
M  V30 6 1 6 7
M  V30 7 1 6 8
M  V30 8 2 7 9
M  V30 9 1 7 10
M  V30 10 1 8 11
M  V30 11 1 8 12
M  V30 12 1 8 13
M  V30 13 1 10 14
M  V30 14 1 14 15
M  V30 15 1 14 16
M  V30 16 1 15 17
M  V30 17 1 18 16
M  V30 18 2 17 19
M  V30 19 1 17 20
M  V30 20 1 18 21 CFG=1
M  V30 21 1 22 18
M  V30 22 1 19 23
M  V30 23 2 20 24
M  V30 24 1 22 25 CFG=3
M  V30 25 1 22 26
M  V30 26 2 23 27
M  V30 27 1 25 28
M  V30 28 1 26 29
M  V30 29 1 27 30
M  V30 30 2 28 31
M  V30 31 1 32 28
M  V30 32 2 29 33
M  V30 33 1 29 34
M  V30 34 2 30 35
M  V30 35 1 30 36
M  V30 36 1 32 37 CFG=3
M  V30 37 1 32 38
M  V30 38 1 33 39
M  V30 39 2 34 40
M  V30 40 1 35 41
M  V30 41 2 36 42
M  V30 42 1 37 43
M  V30 43 1 38 44
M  V30 44 1 38 45
M  V30 45 1 38 46
M  V30 46 2 39 47
M  V30 47 2 41 48
M  V30 48 2 43 49
M  V30 49 1 43 50
M  V30 50 1 50 51
M  V30 51 1 24 27
M  V30 52 1 40 47
M  V30 53 1 42 48
M  V30 END BOND
M  V30 BEGIN COLLECTION
M  V30 MDLV30/STERAC1 ATOMS=(4 6 18 22 32)
M  V30 END COLLECTION
M  V30 END CTAB
M  END
>  <Molecule Name>


>  <status>
-

>  <cas>
198904-31-3

>  <name>
ATAZANAVIR

>  <ID>
1300

>  <Smiles>
CC(C)(C)[C@@H](C(N[C@@H](Cc1ccccc1)[C@H](CN(Cc(cc1)ccc1-c1ncccc1)NC([C@H](C(C)(C)C)NC(OC)=O)=O)O)=O)NC(OC)=O

$$$$

Actelion Java MolfileCreator 2.0

  0  0  0  0  0  0              0 V3000
M  V30 BEGIN CTAB
M  V30 COUNTS 19 19 0 0 0
M  V30 BEGIN ATOM
M  V30 1 O 5.1961 -0.5 0.0 0
M  V30 2 C 4.3301 0.0 0.0 0
M  V30 3 O 3.4641 -0.5 0.0 0
M  V30 4 C 4.3301 1.0 0.0 0
M  V30 5 C 2.598 0.0 0.0 0
M  V30 6 C 5.1961 1.4999 0.0 0
M  V30 7 C 3.4641 1.5 0.0 0
M  V30 8 C 1.732 -0.5 0.0 0
M  V30 9 C 5.1961 2.4999 0.0 0
M  V30 10 C 3.4641 2.5 0.0 0
M  V30 11 N 0.866 0.0 0.0 0
M  V30 12 C 4.3301 3.0 0.0 0
M  V30 13 C 0.866 1.0 0.0 0
M  V30 14 C 0.0 -0.5 0.0 0
M  V30 15 N 4.3301 4.0 0.0 0
M  V30 16 C 5.1961 4.4999 0.0 0
M  V30 17 C 5.1961 5.4999 0.0 0
M  V30 18 C 6.0621 5.9999 0.0 0
M  V30 19 C 6.0621 6.9999 0.0 0
M  V30 END ATOM
M  V30 BEGIN BOND
M  V30 1 2 1 2
M  V30 2 1 2 3
M  V30 3 1 2 4
M  V30 4 1 3 5
M  V30 5 2 4 6
M  V30 6 1 4 7
M  V30 7 1 5 8
M  V30 8 1 6 9
M  V30 9 2 7 10
M  V30 10 1 8 11
M  V30 11 2 9 12
M  V30 12 1 11 13
M  V30 13 1 11 14
M  V30 14 1 12 15
M  V30 15 1 15 16
M  V30 16 1 16 17
M  V30 17 1 17 18
M  V30 18 1 18 19
M  V30 19 1 10 12
M  V30 END BOND
M  V30 END CTAB
M  END
>  <Molecule Name>


>  <status>
-

>  <cas>
94-24-6

>  <name>
TETRACAINE

>  <ID>
1301

>  <Smiles>
CCCCNc(cc1)ccc1C(OCCN(C)C)=O

$$$$

Actelion Java MolfileCreator 2.0

  0  0  0  0  0  0              0 V3000
M  V30 BEGIN CTAB
M  V30 COUNTS 13 14 0 0 0
M  V30 BEGIN ATOM
M  V30 1 N 0.866 0.0 0.0 0
M  V30 2 C 1.732 -0.5 0.0 0 CFG=2
M  V30 3 C 0.0 -0.5 0.0 0
M  V30 4 C 1.8365 -1.4945 0.0 0
M  V30 5 C 2.6455 -0.0932 0.0 0
M  V30 6 C 0.0 -1.5 0.0 0
M  V30 7 C 2.8147 -1.7024 0.0 0
M  V30 8 C 1.1674 -2.2376 0.0 0
M  V30 9 C 3.3147 -0.8364 0.0 0
M  V30 10 C 0.0 -2.5 0.0 0
M  V30 11 C 3.1237 -2.6534 0.0 0
M  V30 12 C 1.4764 -3.1887 0.0 0
M  V30 13 C 2.4546 -3.3966 0.0 0
M  V30 END ATOM
M  V30 BEGIN BOND
M  V30 1 1 2 1 CFG=1
M  V30 2 1 1 3
M  V30 3 1 2 4
M  V30 4 1 2 5
M  V30 5 1 3 6
M  V30 6 2 4 7
M  V30 7 1 4 8
M  V30 8 1 5 9
M  V30 9 3 6 10
M  V30 10 1 7 11
M  V30 11 2 8 12
M  V30 12 2 11 13
M  V30 13 1 7 9
M  V30 14 1 12 13
M  V30 END BOND
M  V30 BEGIN COLLECTION
M  V30 MDLV30/STERAC1 ATOMS=(1 2)
M  V30 END COLLECTION
M  V30 END CTAB
M  END
>  <Molecule Name>


>  <status>
-

>  <cas>
136236-51-6

>  <name>
RASAGILINE

>  <ID>
1302

>  <Smiles>
C#CCNC(CC1)c2c1cccc2

$$$$

Actelion Java MolfileCreator 2.0

  0  0  0  0  0  0              0 V3000
M  V30 BEGIN CTAB
M  V30 COUNTS 32 34 0 0 0
M  V30 BEGIN ATOM
M  V30 1 Cl 9.0932 -3.0 0.0 0
M  V30 2 C 7.7942 -2.25 0.0 0
M  V30 3 C 7.7942 -0.75 0.0 0
M  V30 4 C 6.4951 -2.9999 0.0 0
M  V30 5 C 6.4951 0.0 0.0 0
M  V30 6 C 9.0932 0.0 0.0 0
M  V30 7 C 5.1961 -2.25 0.0 0
M  V30 8 C 5.1961 -0.75 0.0 0
M  V30 9 F 8.3432 1.299 0.0 0
M  V30 10 F 10.3923 0.7499 0.0 0
M  V30 11 F 9.8432 -1.299 0.0 0
M  V30 12 N 3.8971 0.0 0.0 0
M  V30 13 C 2.598 -0.75 0.0 0
M  V30 14 O 2.598 -2.25 0.0 0
M  V30 15 N 1.299 0.0 0.0 0
M  V30 16 C 0.0 -0.75 0.0 0
M  V30 17 C -1.299 0.0 0.0 0
M  V30 18 C 0.0 -2.25 0.0 0
M  V30 19 C -2.598 -0.7499 0.0 0
M  V30 20 C -1.299 -2.9999 0.0 0
M  V30 21 C -2.598 -2.2499 0.0 0
M  V30 22 O -3.8971 -2.9999 0.0 0
M  V30 23 C -3.8971 -4.4999 0.0 0
M  V30 24 C -5.1961 -5.2499 0.0 0
M  V30 25 C -2.598 -5.25 0.0 0
M  V30 26 C -5.1961 -6.7499 0.0 0
M  V30 27 C -2.598 -6.75 0.0 0
M  V30 28 N -3.8971 -7.5 0.0 0
M  V30 29 C -6.4951 -7.4999 0.0 0
M  V30 30 O -6.4951 -8.9999 0.0 0
M  V30 31 N -7.7942 -6.7499 0.0 0
M  V30 32 C -9.0932 -7.4999 0.0 0
M  V30 END ATOM
M  V30 BEGIN BOND
M  V30 1 1 1 2
M  V30 2 2 2 3
M  V30 3 1 2 4
M  V30 4 1 3 5
M  V30 5 1 3 6
M  V30 6 2 4 7
M  V30 7 2 5 8
M  V30 8 1 6 9
M  V30 9 1 6 10
M  V30 10 1 6 11
M  V30 11 1 8 12
M  V30 12 1 12 13
M  V30 13 2 13 14
M  V30 14 1 13 15
M  V30 15 1 15 16
M  V30 16 2 16 17
M  V30 17 1 16 18
M  V30 18 1 17 19
M  V30 19 2 18 20
M  V30 20 2 19 21
M  V30 21 1 21 22
M  V30 22 1 22 23
M  V30 23 2 23 24
M  V30 24 1 23 25
M  V30 25 1 24 26
M  V30 26 2 25 27
M  V30 27 2 26 28
M  V30 28 1 26 29
M  V30 29 2 29 30
M  V30 30 1 29 31
M  V30 31 1 31 32
M  V30 32 1 7 8
M  V30 33 1 20 21
M  V30 34 1 27 28
M  V30 END BOND
M  V30 END CTAB
M  END
>  <Molecule Name>


>  <status>
-

>  <cas>
284461-73-0

>  <name>
SORAFENIB

>  <ID>
1303

>  <Smiles>
CNC(c1nccc(Oc(cc2)ccc2NC(Nc(cc2)cc(C(F)(F)F)c2Cl)=O)c1)=O

$$$$

Actelion Java MolfileCreator 2.0

  0  0  0  0  0  0              0 V3000
M  V30 BEGIN CTAB
M  V30 COUNTS 29 31 0 0 0
M  V30 BEGIN ATOM
M  V30 1 F 12.5435 -0.2374 0.0 0
M  V30 2 C 11.8744 0.5056 0.0 0
M  V30 3 C 10.8962 0.2977 0.0 0
M  V30 4 C 12.1834 1.4567 0.0 0
M  V30 5 C 10.2271 1.0408 0.0 0
M  V30 6 C 11.5143 2.1998 0.0 0
M  V30 7 C 10.5361 1.9919 0.0 0
M  V30 8 C 9.2271 1.0408 0.0 0
M  V30 9 N 9.7271 2.5797 0.0 0
M  V30 10 C 8.9181 1.9919 0.0 0
M  V30 11 C 8.6393 0.2318 0.0 0
M  V30 12 O 7.967 2.3009 0.0 0
M  V30 13 C 7.6448 0.3364 0.0 0
M  V30 14 N 7.1448 1.2024 0.0 0
M  V30 15 C 6.9757 -0.4067 0.0 0
M  V30 16 C 6.1667 0.9945 0.0 0
M  V30 17 C 6.0621 0.0 0.0 0
M  V30 18 C 7.1836 -1.3848 0.0 0
M  V30 19 C 5.4235 1.6636 0.0 0
M  V30 20 C 5.1961 -0.5 0.0 0
M  V30 21 O 5.1961 -1.4999 0.0 0
M  V30 22 N 4.3301 0.0 0.0 0
M  V30 23 C 3.4641 -0.5 0.0 0
M  V30 24 C 2.598 0.0 0.0 0
M  V30 25 N 1.732 -0.5 0.0 0
M  V30 26 C 1.732 -1.5 0.0 0
M  V30 27 C 0.866 0.0 0.0 0
M  V30 28 C 2.598 -1.9999 0.0 0
M  V30 29 C 0.0 -0.5 0.0 0
M  V30 END ATOM
M  V30 BEGIN BOND
M  V30 1 1 1 2
M  V30 2 2 2 3
M  V30 3 1 2 4
M  V30 4 1 3 5
M  V30 5 2 4 6
M  V30 6 2 5 7
M  V30 7 1 5 8
M  V30 8 1 7 9
M  V30 9 1 8 10
M  V30 10 2 8 11
M  V30 11 2 10 12
M  V30 12 1 11 13
M  V30 13 1 13 14
M  V30 14 2 13 15
M  V30 15 1 14 16
M  V30 16 1 15 17
M  V30 17 1 15 18
M  V30 18 1 16 19
M  V30 19 1 17 20
M  V30 20 2 20 21
M  V30 21 1 20 22
M  V30 22 1 22 23
M  V30 23 1 23 24
M  V30 24 1 24 25
M  V30 25 1 25 26
M  V30 26 1 25 27
M  V30 27 1 26 28
M  V30 28 1 27 29
M  V30 29 1 6 7
M  V30 30 1 9 10
M  V30 31 2 16 17
M  V30 END BOND
M  V30 END CTAB
M  END
>  <Molecule Name>


>  <status>
-

>  <cas>
557795-19-4

>  <name>
SUNITINIB

>  <ID>
1304

>  <Smiles>
CCN(CC)CCNC(c1c(C)[nH]c(/C=C(/c(cc(cc2)F)c2N2)\C2=O)c1C)=O

$$$$

Actelion Java MolfileCreator 2.0

  0  0  0  0  0  0              0 V3000
M  V30 BEGIN CTAB
M  V30 COUNTS 38 41 0 0 0
M  V30 BEGIN ATOM
M  V30 1 S 9.0932 1.5 0.0 0
M  V30 2 O 8.3432 0.201 0.0 0
M  V30 3 O 9.8432 0.201 0.0 0
M  V30 4 N 7.7942 2.25 0.0 0
M  V30 5 C 10.3923 2.25 0.0 0
M  V30 6 C 6.4951 1.5 0.0 0
M  V30 7 C 7.7942 3.75 0.0 0
M  V30 8 C 11.6913 1.5 0.0 0
M  V30 9 C 10.3923 3.75 0.0 0
M  V30 10 C 6.4951 0.0 0.0 0 CFG=2
M  V30 11 C 6.4951 4.5 0.0 0
M  V30 12 C 12.9903 2.25 0.0 0
M  V30 13 C 11.6913 4.5 0.0 0
M  V30 14 O 7.7942 -0.75 0.0 0
M  V30 15 C 5.1961 -0.75 0.0 0 CFG=2
M  V30 16 C 6.4951 6.0 0.0 0
M  V30 17 C 5.1961 3.75 0.0 0
M  V30 18 C 12.9903 3.75 0.0 0
M  V30 19 N 3.8971 0.0 0.0 0
M  V30 20 C 5.1961 -2.25 0.0 0
M  V30 21 N 14.2894 4.5 0.0 0
M  V30 22 C 3.8971 1.5 0.0 0
M  V30 23 C 3.8971 -3.0 0.0 0
M  V30 24 O 5.1961 2.25 0.0 0
M  V30 25 O 2.598 2.25 0.0 0
M  V30 26 C 3.8971 -4.5 0.0 0
M  V30 27 C 2.598 -2.25 0.0 0
M  V30 28 C 2.598 3.75 0.0 0 CFG=1
M  V30 29 C 2.598 -5.25 0.0 0
M  V30 30 C 1.299 -3.0 0.0 0
M  V30 31 C 1.3845 4.6316 0.0 0 CFG=2
M  V30 32 C 3.8116 4.6316 0.0 0
M  V30 33 C 1.299 -4.5 0.0 0
M  V30 34 C 1.848 6.0582 0.0 0 CFG=2
M  V30 35 C -0.1154 4.6316 0.0 0
M  V30 36 O 3.348 6.0582 0.0 0
M  V30 37 O 0.6345 6.9399 0.0 0
M  V30 38 C -0.5789 6.0582 0.0 0
M  V30 END ATOM
M  V30 BEGIN BOND
M  V30 1 2 1 2
M  V30 2 2 1 3
M  V30 3 1 1 4
M  V30 4 1 1 5
M  V30 5 1 4 6
M  V30 6 1 4 7
M  V30 7 2 5 8
M  V30 8 1 5 9
M  V30 9 1 10 6
M  V30 10 1 7 11
M  V30 11 1 8 12
M  V30 12 2 9 13
M  V30 13 1 10 14 CFG=3
M  V30 14 1 15 10
M  V30 15 1 11 16
M  V30 16 1 11 17
M  V30 17 2 12 18
M  V30 18 1 15 19 CFG=1
M  V30 19 1 15 20
M  V30 20 1 18 21
M  V30 21 1 19 22
M  V30 22 1 20 23
M  V30 23 2 22 24
M  V30 24 1 22 25
M  V30 25 2 23 26
M  V30 26 1 23 27
M  V30 27 1 28 25 CFG=1
M  V30 28 1 26 29
M  V30 29 2 27 30
M  V30 30 1 31 28
M  V30 31 1 28 32
M  V30 32 2 29 33
M  V30 33 1 34 31
M  V30 34 1 31 35 CFG=1
M  V30 35 1 32 36
M  V30 36 1 34 37 CFG=1
M  V30 37 1 35 38
M  V30 38 1 13 18
M  V30 39 1 30 33
M  V30 40 1 34 36
M  V30 41 1 37 38
M  V30 END BOND
M  V30 BEGIN COLLECTION
M  V30 MDLV30/STERAC1 ATOMS=(5 10 15 28 31 34)
M  V30 END COLLECTION
M  V30 END CTAB
M  END
>  <Molecule Name>


>  <status>
-

>  <cas>
206361-99-1

>  <name>
DARUNAVIR

>  <ID>
1305

>  <Smiles>
CC(C)CN(C[C@@H]([C@@H](Cc1ccccc1)NC(O[C@H]1[C@@H](CCO2)[C@@H]2OC1)=O)O)S(c(cc1)ccc1N)(=O)=O

$$$$

Actelion Java MolfileCreator 2.0

  0  0  0  0  0  0              0 V3000
M  V30 BEGIN CTAB
M  V30 COUNTS 19 19 0 0 0
M  V30 BEGIN ATOM
M  V30 1 O 5.1961 -1.4999 0.0 0
M  V30 2 C 5.1961 -0.5 0.0 0
M  V30 3 N 6.0621 0.0 0.0 0
M  V30 4 C 4.3301 0.0 0.0 0 CFG=1
M  V30 5 C 6.9282 -0.5 0.0 0 CFG=2
M  V30 6 N 4.3301 1.0 0.0 0
M  V30 7 C 3.4641 -0.5 0.0 0
M  V30 8 C 7.7942 0.0 0.0 0
M  V30 9 C 6.9282 -1.4999 0.0 0
M  V30 10 C 2.598 0.0 0.0 0
M  V30 11 C 8.6602 -0.5 0.0 0
M  V30 12 C 1.732 -0.5 0.0 0
M  V30 13 C 8.6602 -1.5 0.0 0
M  V30 14 C 9.5262 0.0 0.0 0
M  V30 15 C 0.866 0.0 0.0 0
M  V30 16 C 9.5262 -2.0 0.0 0
M  V30 17 C 10.3923 -0.5 0.0 0
M  V30 18 N 0.0 -0.5 0.0 0
M  V30 19 C 10.3923 -1.5 0.0 0
M  V30 END ATOM
M  V30 BEGIN BOND
M  V30 1 2 1 2
M  V30 2 1 2 3
M  V30 3 1 4 2
M  V30 4 1 5 3 CFG=3
M  V30 5 1 4 6 CFG=3
M  V30 6 1 4 7
M  V30 7 1 5 8
M  V30 8 1 5 9
M  V30 9 1 7 10
M  V30 10 1 8 11
M  V30 11 1 10 12
M  V30 12 2 11 13
M  V30 13 1 11 14
M  V30 14 1 12 15
M  V30 15 1 13 16
M  V30 16 2 14 17
M  V30 17 1 15 18
M  V30 18 2 16 19
M  V30 19 1 17 19
M  V30 END BOND
M  V30 BEGIN COLLECTION
M  V30 MDLV30/STERAC1 ATOMS=(2 4 5)
M  V30 END COLLECTION
M  V30 END CTAB
M  END
>  <Molecule Name>


>  <status>
-

>  <cas>
608137-32-2

>  <name>
LISDEXAMFETAMINE

>  <ID>
1306

>  <Smiles>
C[C@@H](Cc1ccccc1)NC([C@H](CCCCN)N)=O

$$$$

Actelion Java MolfileCreator 2.0

  0  0  0  0  0  0              0 V3000
M  V30 BEGIN CTAB
M  V30 COUNTS 39 39 0 0 0
M  V30 BEGIN ATOM
M  V30 1 O 16.8875 0.0 0.0 0
M  V30 2 C 15.5884 -0.75 0.0 0
M  V30 3 N 15.5884 -2.25 0.0 0
M  V30 4 C 14.2894 0.0 0.0 0
M  V30 5 C 12.9903 -0.75 0.0 0
M  V30 6 C 15.0394 1.299 0.0 0
M  V30 7 C 13.5394 1.299 0.0 0
M  V30 8 N 11.6913 0.0 0.0 0
M  V30 9 C 10.3923 -0.75 0.0 0
M  V30 10 O 10.3923 -2.25 0.0 0
M  V30 11 C 9.0932 0.0 0.0 0 CFG=2
M  V30 12 C 9.0932 1.5 0.0 0
M  V30 13 C 7.7942 -0.75 0.0 0
M  V30 14 C 10.3923 2.25 0.0 0
M  V30 15 C 7.7942 2.25 0.0 0
M  V30 16 C 6.4951 0.0 0.0 0 CFG=2
M  V30 17 O 6.4951 1.5 0.0 0
M  V30 18 C 5.1961 -0.75 0.0 0 CFG=1
M  V30 19 N 5.1961 -2.25 0.0 0
M  V30 20 C 3.8971 0.0 0.0 0
M  V30 21 C 2.598 -0.75 0.0 0 CFG=1
M  V30 22 C 2.598 -2.25 0.0 0
M  V30 23 C 1.299 0.0 0.0 0
M  V30 24 C 1.299 -3.0 0.0 0
M  V30 25 C 3.8971 -3.0 0.0 0
M  V30 26 C 0.0 -0.75 0.0 0
M  V30 27 C -1.299 0.0 0.0 0
M  V30 28 C 0.0 -2.25 0.0 0
M  V30 29 C -2.598 -0.75 0.0 0
M  V30 30 C -1.299 -3.0 0.0 0
M  V30 31 O -3.8971 0.0 0.0 0
M  V30 32 C -2.598 -2.25 0.0 0
M  V30 33 C -5.1961 -0.75 0.0 0
M  V30 34 O -3.8971 -3.0 0.0 0
M  V30 35 C -6.4951 0.0 0.0 0
M  V30 36 C -3.8971 -4.5 0.0 0
M  V30 37 C -7.7942 -0.75 0.0 0
M  V30 38 O -9.0932 0.0 0.0 0
M  V30 39 C -10.3923 -0.75 0.0 0
M  V30 END ATOM
M  V30 BEGIN BOND
M  V30 1 2 1 2
M  V30 2 1 2 3
M  V30 3 1 2 4
M  V30 4 1 4 5
M  V30 5 1 4 6
M  V30 6 1 4 7
M  V30 7 1 5 8
M  V30 8 1 8 9
M  V30 9 2 9 10
M  V30 10 1 11 9
M  V30 11 1 11 12
M  V30 12 1 11 13 CFG=1
M  V30 13 1 12 14
M  V30 14 1 12 15
M  V30 15 1 16 13
M  V30 16 1 16 17 CFG=1
M  V30 17 1 18 16
M  V30 18 1 18 19 CFG=1
M  V30 19 1 18 20
M  V30 20 1 21 20 CFG=1
M  V30 21 1 21 22
M  V30 22 1 21 23
M  V30 23 1 22 24
M  V30 24 1 22 25
M  V30 25 1 23 26
M  V30 26 2 26 27
M  V30 27 1 26 28
M  V30 28 1 27 29
M  V30 29 2 28 30
M  V30 30 1 29 31
M  V30 31 2 29 32
M  V30 32 1 31 33
M  V30 33 1 32 34
M  V30 34 1 33 35
M  V30 35 1 34 36
M  V30 36 1 35 37
M  V30 37 1 37 38
M  V30 38 1 38 39
M  V30 39 1 30 32
M  V30 END BOND
M  V30 BEGIN COLLECTION
M  V30 MDLV30/STERAC1 ATOMS=(4 11 16 18 21)
M  V30 END COLLECTION
M  V30 END CTAB
M  END
>  <Molecule Name>


>  <status>
-

>  <cas>
173334-57-1

>  <name>
ALISKIREN

>  <ID>
1307

>  <Smiles>
CC(C)[C@H](C[C@@H]([C@H](C[C@@H](C(C)C)C(NCC(C)(C)C(N)=O)=O)O)N)Cc(cc1)cc(OCCCOC)c1OC

$$$$

Actelion Java MolfileCreator 2.0

  0  0  0  0  0  0              0 V3000
M  V30 BEGIN CTAB
M  V30 COUNTS 28 30 0 0 0
M  V30 BEGIN ATOM
M  V30 1 F 10.3923 2.2499 0.0 0
M  V30 2 C 9.0932 1.4999 0.0 0
M  V30 3 C 7.7942 2.2499 0.0 0
M  V30 4 C 9.0932 0.0 0.0 0
M  V30 5 F 7.7942 3.7499 0.0 0
M  V30 6 C 6.4951 1.5 0.0 0
M  V30 7 C 7.7942 -0.75 0.0 0
M  V30 8 C 6.4951 0.0 0.0 0
M  V30 9 F 7.7942 -2.25 0.0 0
M  V30 10 C 5.1961 -0.75 0.0 0
M  V30 11 C 3.8971 0.0 0.0 0 CFG=1
M  V30 12 N 3.8971 1.5 0.0 0
M  V30 13 C 2.598 -0.75 0.0 0
M  V30 14 C 1.299 0.0 0.0 0
M  V30 15 O 1.299 1.5 0.0 0
M  V30 16 N 0.0 -0.75 0.0 0
M  V30 17 C -1.299 0.0 0.0 0
M  V30 18 C 0.0 -2.2499 0.0 0
M  V30 19 C -2.598 -0.7499 0.0 0
M  V30 20 C -1.299 -2.9999 0.0 0
M  V30 21 N -4.0246 -0.2864 0.0 0
M  V30 22 N -2.598 -2.2499 0.0 0
M  V30 23 N -4.9063 -1.4999 0.0 0
M  V30 24 C -4.0246 -2.7135 0.0 0
M  V30 25 C -4.4881 -4.1401 0.0 0
M  V30 26 F -3.0616 -4.6036 0.0 0
M  V30 27 F -4.9517 -5.5666 0.0 0
M  V30 28 F -5.9147 -3.6765 0.0 0
M  V30 END ATOM
M  V30 BEGIN BOND
M  V30 1 1 1 2
M  V30 2 2 2 3
M  V30 3 1 2 4
M  V30 4 1 3 5
M  V30 5 1 3 6
M  V30 6 2 4 7
M  V30 7 2 6 8
M  V30 8 1 7 9
M  V30 9 1 8 10
M  V30 10 1 11 10
M  V30 11 1 11 12 CFG=3
M  V30 12 1 11 13
M  V30 13 1 13 14
M  V30 14 2 14 15
M  V30 15 1 14 16
M  V30 16 1 16 17
M  V30 17 1 16 18
M  V30 18 1 17 19
M  V30 19 1 18 20
M  V30 20 2 19 21
M  V30 21 1 19 22
M  V30 22 1 21 23
M  V30 23 1 22 24
M  V30 24 1 24 25
M  V30 25 1 25 26
M  V30 26 1 25 27
M  V30 27 1 25 28
M  V30 28 1 7 8
M  V30 29 1 20 22
M  V30 30 2 23 24
M  V30 END BOND
M  V30 BEGIN COLLECTION
M  V30 MDLV30/STERAC1 ATOMS=(1 11)
M  V30 END COLLECTION
M  V30 END CTAB
M  END
>  <Molecule Name>


>  <status>
-

>  <cas>
486460-32-6

>  <name>
SITAGLIPTIN

>  <ID>
1308

>  <Smiles>
NC(CC(N1Cc2nnc(C(F)(F)F)n2CC1)=O)Cc(c(F)c1)cc(F)c1F

$$$$

Actelion Java MolfileCreator 2.0

  0  0  0  0  0  0              0 V3000
M  V30 BEGIN CTAB
M  V30 COUNTS 40 44 0 0 0
M  V30 BEGIN ATOM
M  V30 1 Cl 13.7478 -1.5233 0.0 0
M  V30 2 C 12.8661 -0.3098 0.0 0
M  V30 3 C 11.3743 -0.4666 0.0 0
M  V30 4 C 13.4762 1.0605 0.0 0
M  V30 5 O 10.7642 -1.8369 0.0 0
M  V30 6 C 10.4926 0.7469 0.0 0
M  V30 7 C 12.5945 2.274 0.0 0
M  V30 8 C 11.6459 -3.0504 0.0 0
M  V30 9 C 11.1027 2.1172 0.0 0
M  V30 10 N 13.2046 3.6443 0.0 0
M  V30 11 C 11.0358 -4.4207 0.0 0
M  V30 12 C 12.3229 4.8578 0.0 0
M  V30 13 C 11.9174 -5.6342 0.0 0
M  V30 14 C 9.544 -4.5775 0.0 0
M  V30 15 N 12.933 6.2281 0.0 0
M  V30 16 C 10.8311 4.701 0.0 0
M  V30 17 C 11.3073 -7.0046 0.0 0
M  V30 18 C 8.9339 -5.9478 0.0 0
M  V30 19 C 12.0514 7.4417 0.0 0
M  V30 20 C 9.9495 5.9146 0.0 0
M  V30 21 C 10.221 3.3307 0.0 0
M  V30 22 F 12.189 -8.2181 0.0 0
M  V30 23 C 9.8156 -7.1614 0.0 0
M  V30 24 N 10.5596 7.2849 0.0 0
M  V30 25 C 8.4577 5.7578 0.0 0
M  V30 26 C 8.7293 3.1739 0.0 0
M  V30 27 C 7.8476 4.3874 0.0 0
M  V30 28 C 8.1192 1.8036 0.0 0
M  V30 29 O 6.6519 1.4917 0.0 0
M  V30 30 C 8.8692 0.5046 0.0 0
M  V30 31 C 6.4951 0.0 0.0 0
M  V30 32 C 7.8655 -0.6101 0.0 0
M  V30 33 C 5.1961 -0.75 0.0 0
M  V30 34 N 3.8971 0.0 0.0 0
M  V30 35 C 2.598 -0.75 0.0 0
M  V30 36 C 1.299 0.0 0.0 0
M  V30 37 S 0.0 -0.75 0.0 0
M  V30 38 O -0.7499 0.549 0.0 0
M  V30 39 O 0.7499 -2.049 0.0 0
M  V30 40 C -1.299 -1.4999 0.0 0
M  V30 END ATOM
M  V30 BEGIN BOND
M  V30 1 1 1 2
M  V30 2 2 2 3
M  V30 3 1 2 4
M  V30 4 1 3 5
M  V30 5 1 3 6
M  V30 6 2 4 7
M  V30 7 1 5 8
M  V30 8 2 6 9
M  V30 9 1 7 10
M  V30 10 1 8 11
M  V30 11 1 10 12
M  V30 12 2 11 13
M  V30 13 1 11 14
M  V30 14 2 12 15
M  V30 15 1 12 16
M  V30 16 1 13 17
M  V30 17 2 14 18
M  V30 18 1 15 19
M  V30 19 1 16 20
M  V30 20 2 16 21
M  V30 21 1 17 22
M  V30 22 2 17 23
M  V30 23 2 19 24
M  V30 24 2 20 25
M  V30 25 1 21 26
M  V30 26 1 25 27
M  V30 27 1 26 28
M  V30 28 1 28 29
M  V30 29 2 28 30
M  V30 30 1 29 31
M  V30 31 1 30 32
M  V30 32 1 31 33
M  V30 33 1 33 34
M  V30 34 1 34 35
M  V30 35 1 35 36
M  V30 36 1 36 37
M  V30 37 2 37 38
M  V30 38 2 37 39
M  V30 39 1 37 40
M  V30 40 1 7 9
M  V30 41 1 18 23
M  V30 42 1 20 24
M  V30 43 2 26 27
M  V30 44 2 31 32
M  V30 END BOND
M  V30 END CTAB
M  END
>  <Molecule Name>


>  <status>
-

>  <cas>
231277-92-2

>  <name>
LAPATINIB

>  <ID>
1309

>  <Smiles>
CS(CCNCc1ccc(-c(cc23)ccc3ncnc2Nc(cc2)cc(Cl)c2OCc2cc(F)ccc2)o1)(=O)=O

$$$$

Actelion Java MolfileCreator 2.0

  0  0  0  0  0  0              0 V3000
M  V30 BEGIN CTAB
M  V30 COUNTS 39 43 0 0 0
M  V30 BEGIN ATOM
M  V30 1 F 5.6961 0.366 0.0 0
M  V30 2 C 5.1961 -0.5 0.0 0
M  V30 3 F 6.0621 -1.0 0.0 0
M  V30 4 F 4.6961 -1.366 0.0 0
M  V30 5 C 4.3301 0.0 0.0 0
M  V30 6 C 4.3301 1.0 0.0 0
M  V30 7 C 3.4641 -0.4999 0.0 0
M  V30 8 C 3.4641 1.5 0.0 0
M  V30 9 C 2.598 0.0 0.0 0
M  V30 10 N 3.4641 2.5 0.0 0
M  V30 11 C 2.598 1.0 0.0 0
M  V30 12 N 1.732 -0.5 0.0 0
M  V30 13 C 4.2731 3.0877 0.0 0
M  V30 14 C 2.655 3.0877 0.0 0
M  V30 15 C 0.866 0.0 0.0 0
M  V30 16 N 3.9641 4.0388 0.0 0
M  V30 17 C 2.9641 4.0388 0.0 0
M  V30 18 O 0.866 1.0 0.0 0
M  V30 19 C 0.0 -0.5 0.0 0
M  V30 20 C 2.3763 4.8478 0.0 0
M  V30 21 C -0.866 0.0 0.0 0
M  V30 22 C 0.0 -1.4999 0.0 0
M  V30 23 C -1.732 -0.4999 0.0 0
M  V30 24 C -0.866 -1.9999 0.0 0
M  V30 25 N -2.598 0.0 0.0 0
M  V30 26 C -1.732 -1.4999 0.0 0
M  V30 27 C -3.4641 -0.4999 0.0 0
M  V30 28 C -2.598 -1.9999 0.0 0
M  V30 29 N -4.3301 0.0 0.0 0
M  V30 30 N -3.4641 -1.4999 0.0 0
M  V30 31 C -5.1961 -0.4999 0.0 0
M  V30 32 C -4.3301 -1.9999 0.0 0
M  V30 33 C -6.0621 0.0 0.0 0
M  V30 34 C -5.1961 -1.4999 0.0 0
M  V30 35 C -6.0621 1.0 0.0 0
M  V30 36 C -6.9282 -0.4999 0.0 0
M  V30 37 N -6.9282 1.5 0.0 0
M  V30 38 C -7.7942 0.0 0.0 0
M  V30 39 C -7.7942 1.0 0.0 0
M  V30 END ATOM
M  V30 BEGIN BOND
M  V30 1 1 1 2
M  V30 2 1 2 3
M  V30 3 1 2 4
M  V30 4 1 2 5
M  V30 5 2 5 6
M  V30 6 1 5 7
M  V30 7 1 6 8
M  V30 8 2 7 9
M  V30 9 1 8 10
M  V30 10 2 8 11
M  V30 11 1 9 12
M  V30 12 1 10 13
M  V30 13 1 10 14
M  V30 14 1 12 15
M  V30 15 2 13 16
M  V30 16 2 14 17
M  V30 17 2 15 18
M  V30 18 1 15 19
M  V30 19 1 17 20
M  V30 20 2 19 21
M  V30 21 1 19 22
M  V30 22 1 21 23
M  V30 23 2 22 24
M  V30 24 1 23 25
M  V30 25 2 23 26
M  V30 26 1 25 27
M  V30 27 1 26 28
M  V30 28 2 27 29
M  V30 29 1 27 30
M  V30 30 1 29 31
M  V30 31 2 30 32
M  V30 32 1 31 33
M  V30 33 2 31 34
M  V30 34 2 33 35
M  V30 35 1 33 36
M  V30 36 1 35 37
M  V30 37 2 36 38
M  V30 38 2 37 39
M  V30 39 1 9 11
M  V30 40 1 16 17
M  V30 41 1 24 26
M  V30 42 1 32 34
M  V30 43 1 38 39
M  V30 END BOND
M  V30 END CTAB
M  END
>  <Molecule Name>


>  <status>
-

>  <cas>
641571-10-0

>  <name>
NILOTINIB

>  <ID>
1310

>  <Smiles>
Cc(nc1)cn1-c1cc(NC(c2cc(Nc3nc(-c4cnccc4)ccn3)c(C)cc2)=O)cc(C(F)(F)F)c1

$$$$

Actelion Java MolfileCreator 2.0

  0  0  0  0  0  0              0 V3000
M  V30 BEGIN CTAB
M  V30 COUNTS 100 103 0 0 0
M  V30 BEGIN ATOM
M  V30 1 S 11.4749 -1.7024 0.0 0
M  V30 2 C 11.9749 -0.8364 0.0 0
M  V30 3 C 10.4968 -1.4945 0.0 0
M  V30 4 N 11.3058 -0.0932 0.0 0
M  V30 5 C 12.9695 -0.7318 0.0 0 CFG=1
M  V30 6 C 10.3923 -0.5 0.0 0 CFG=2
M  V30 7 N 13.5572 -1.5408 0.0 0
M  V30 8 C 13.3762 0.1816 0.0 0 CFG=2
M  V30 9 C 9.5262 0.0 0.0 0
M  V30 10 C 14.3707 0.2861 0.0 0
M  V30 11 C 12.7884 0.9906 0.0 0
M  V30 12 O 9.5262 1.0 0.0 0
M  V30 13 N 8.6602 -0.5 0.0 0
M  V30 14 C 14.7774 1.1997 0.0 0
M  V30 15 C 7.7942 0.0 0.0 0 CFG=2
M  V30 16 C 6.9282 -0.5 0.0 0
M  V30 17 C 7.7942 0.9999 0.0 0
M  V30 18 O 6.9282 -1.4999 0.0 0
M  V30 19 N 6.0621 0.0 0.0 0
M  V30 20 C 6.9282 1.4999 0.0 0
M  V30 21 C 5.1961 -0.5 0.0 0 CFG=1
M  V30 22 C 6.0621 0.9999 0.0 0
M  V30 23 C 6.9282 2.4999 0.0 0
M  V30 24 C 4.3301 0.0 0.0 0
M  V30 25 C 5.1961 -1.5 0.0 0
M  V30 26 O 4.3301 1.0 0.0 0
M  V30 27 N 3.4641 -0.5 0.0 0
M  V30 28 C 6.0621 -2.0 0.0 0
M  V30 29 C 2.598 0.0 0.0 0 CFG=2
M  V30 30 C 6.0621 -3.0 0.0 0
M  V30 31 C 2.598 0.9999 0.0 0
M  V30 32 C 1.732 -0.5 0.0 0 CFG=1
M  V30 33 O 5.1961 -3.5 0.0 0
M  V30 34 O 6.9282 -3.5 0.0 0 CHG=-1
M  V30 35 O 1.732 1.5 0.0 0
M  V30 36 N 3.4641 1.4999 0.0 0
M  V30 37 C 0.866 0.0 0.0 0
M  V30 38 C 1.732 -1.5 0.0 0
M  V30 39 C 3.4641 2.4999 0.0 0 CFG=2
M  V30 40 C 0.0 -0.5 0.0 0
M  V30 41 C 2.552 2.9101 0.0 0
M  V30 42 C 9.8409 5.3679 0.0 0
M  V30 43 O 1.7532 2.3085 0.0 0
M  V30 44 N 2.4097 3.8999 0.0 0
M  V30 45 C 9.8237 6.3677 0.0 0
M  V30 46 C 3.1691 4.5505 0.0 0 CFG=1
M  V30 47 C 10.7018 6.8462 0.0 0
M  V30 48 C 2.9444 5.5249 0.0 0
M  V30 49 C 4.119 4.2379 0.0 0
M  V30 50 C 10.7683 7.844 0.0 0
M  V30 51 O 3.6615 6.2219 0.0 0
M  V30 52 N 1.9768 5.7773 0.0 0
M  V30 53 C 4.2904 3.332 0.0 0
M  V30 54 N 9.9615 8.4348 0.0 0
M  V30 55 C 1.6714 6.7295 0.0 0 CFG=2
M  V30 56 C 5.307 2.8711 0.0 0
M  V30 57 C 9.0304 8.0702 0.0 0
M  V30 58 C 2.3117 7.4976 0.0 0
M  V30 59 C 0.6898 6.9205 0.0 0 CFG=1
M  V30 60 N 5.4774 1.9675 0.0 0
M  V30 61 O 8.8599 7.0848 0.0 0
M  V30 62 C 8.2759 8.7264 0.0 0 CFG=1
M  V30 63 O 1.947 8.4287 0.0 0
M  V30 64 N 3.3033 7.3685 0.0 0
M  V30 65 C 0.3645 7.8662 0.0 0
M  V30 66 C 0.0335 6.166 0.0 0
M  V30 67 N 8.5079 9.6991 0.0 0
M  V30 68 C 7.3236 8.421 0.0 0
M  V30 69 C 3.8771 8.1875 0.0 0 CFG=1
M  V30 70 C -0.617 8.0572 0.0 0
M  V30 71 C 7.8109 10.4162 0.0 0
M  V30 72 C 7.1121 7.4436 0.0 0
M  V30 73 C 3.4171 9.0755 0.0 0
M  V30 74 C 4.8183 8.087 0.0 0
M  V30 75 O 8.1035 11.3725 0.0 0
M  V30 76 C 6.832 10.212 0.0 0 CFG=2
M  V30 77 O 7.8527 6.7717 0.0 0
M  V30 78 N 6.0665 7.0102 0.0 0
M  V30 79 O 2.4175 9.1002 0.0 0
M  V30 80 N 3.9204 9.9396 0.0 0
M  V30 81 C 5.3162 7.2236 0.0 0
M  V30 82 N 6.4799 9.276 0.0 0
M  V30 83 C 6.1814 10.9714 0.0 0
M  V30 84 C 4.9197 9.9777 0.0 0 CFG=2
M  V30 85 C 6.226 7.3691 0.0 0
M  V30 86 C 4.7596 6.3928 0.0 0
M  V30 87 C 5.4873 9.1544 0.0 0
M  V30 88 C 6.5138 11.9146 0.0 0
M  V30 89 C 5.3677 10.8718 0.0 0
M  V30 90 C 6.7552 6.2597 0.0 0
M  V30 91 C 5.2009 5.4954 0.0 0
M  V30 92 O 5.1903 8.3104 0.0 0
M  V30 93 O 7.4968 12.0983 0.0 0
M  V30 94 O 5.8632 12.674 0.0 0 CHG=-1
M  V30 95 C 4.8174 11.7067 0.0 0
M  V30 96 C 6.1987 5.4288 0.0 0
M  V30 97 N 5.1695 12.6427 0.0 0
M  V30 98 C 3.8185 11.7524 0.0 0
M  V30 99 C 4.3882 13.2668 0.0 0
M  V30 100 N 3.5532 12.7165 0.0 0
M  V30 END ATOM
M  V30 BEGIN BOND
M  V30 1 1 1 2
M  V30 2 1 1 3
M  V30 3 2 2 4
M  V30 4 1 5 2
M  V30 5 1 6 3
M  V30 6 1 5 7 CFG=3
M  V30 7 1 8 5
M  V30 8 1 6 9 CFG=1
M  V30 9 1 8 10
M  V30 10 1 8 11 CFG=1
M  V30 11 2 9 12
M  V30 12 1 9 13
M  V30 13 1 10 14
M  V30 14 1 15 13 CFG=3
M  V30 15 1 15 16
M  V30 16 1 15 17
M  V30 17 2 16 18
M  V30 18 1 16 19
M  V30 19 1 17 20
M  V30 20 1 21 19 CFG=3
M  V30 21 1 20 22
M  V30 22 1 20 23
M  V30 23 1 21 24
M  V30 24 1 21 25
M  V30 25 2 24 26
M  V30 26 1 24 27
M  V30 27 1 25 28
M  V30 28 1 29 27 CFG=1
M  V30 29 1 28 30
M  V30 30 1 29 31
M  V30 31 1 32 29
M  V30 32 2 30 33
M  V30 33 1 30 34
M  V30 34 2 31 35
M  V30 35 1 31 36
M  V30 36 1 32 37
M  V30 37 1 32 38 CFG=3
M  V30 38 1 39 36 CFG=3
M  V30 39 1 37 40
M  V30 40 1 39 41
M  V30 41 1 39 42
M  V30 42 2 41 43
M  V30 43 1 41 44
M  V30 44 1 42 45
M  V30 45 1 46 44
M  V30 46 1 45 47
M  V30 47 1 46 48
M  V30 48 1 46 49 CFG=1
M  V30 49 1 47 50
M  V30 50 2 48 51
M  V30 51 1 48 52
M  V30 52 1 49 53
M  V30 53 1 50 54
M  V30 54 1 55 52 CFG=1
M  V30 55 1 53 56
M  V30 56 1 54 57
M  V30 57 1 55 58
M  V30 58 1 59 55
M  V30 59 1 56 60
M  V30 60 2 57 61
M  V30 61 1 62 57
M  V30 62 2 58 63
M  V30 63 1 58 64
M  V30 64 1 59 65
M  V30 65 1 59 66 CFG=3
M  V30 66 1 62 67
M  V30 67 1 62 68 CFG=3
M  V30 68 1 69 64
M  V30 69 1 65 70
M  V30 70 1 67 71
M  V30 71 1 68 72
M  V30 72 1 69 73
M  V30 73 1 69 74 CFG=1
M  V30 74 2 71 75
M  V30 75 1 76 71
M  V30 76 2 72 77
M  V30 77 1 72 78
M  V30 78 2 73 79
M  V30 79 1 73 80
M  V30 80 1 74 81
M  V30 81 1 76 82
M  V30 82 1 76 83 CFG=3
M  V30 83 1 84 80
M  V30 84 2 81 85
M  V30 85 1 81 86
M  V30 86 1 82 87
M  V30 87 1 83 88
M  V30 88 1 84 89 CFG=1
M  V30 89 1 85 90
M  V30 90 2 86 91
M  V30 91 2 87 92
M  V30 92 2 88 93
M  V30 93 1 88 94
M  V30 94 1 89 95
M  V30 95 2 90 96
M  V30 96 1 95 97
M  V30 97 2 95 98
M  V30 98 1 97 99
M  V30 99 1 98 100
M  V30 100 1 4 6
M  V30 101 1 84 87
M  V30 102 1 91 96
M  V30 103 2 99 100
M  V30 END BOND
M  V30 BEGIN COLLECTION
M  V30 MDLV30/STERAC1 ATOMS=(15 5 6 8 15 21 29 32 39 46 55 59 62 69 76 84)
M  V30 END COLLECTION
M  V30 END CTAB
M  END
>  <Molecule Name>


>  <status>
-

>  <cas>
1405-87-4

>  <name>
BACITRACIN

>  <ID>
1311

>  <Smiles>
CC[C@@H](C)[C@@H](C(N[C@@H](CCCCNC([C@H](CC(N)=O)NC([C@@H](CC([O-])=O)NC([C@H](Cc1cnc[nH]1)NC([C@@H](Cc1ccccc1)NC([C@H]([C@H](C)CC)NC([C@@H](CCCN)N1)=O)=O)=O)=O)=O)=O)C1=O)=O)NC([C@@H](CCC([O-])=O)NC([C@H](CC(C)C)NC([C@H]1N=C([C@H]([C@@H](C)CC)N)SC1)=O)=O)=O

$$$$

Actelion Java MolfileCreator 2.0

  0  0  0  0  0  0              0 V3000
M  V30 BEGIN CTAB
M  V30 COUNTS 81 81 0 0 0
M  V30 BEGIN ATOM
M  V30 1 O 18.115 -2.8311 0.0 0
M  V30 2 C 18.0695 -1.8321 0.0 0
M  V30 3 N 17.0737 -1.7412 0.0 0
M  V30 4 C 19.053 -1.651 0.0 0 CFG=1
M  V30 5 C 16.1393 -1.385 0.0 0
M  V30 6 N 19.9511 -1.2113 0.0 0
M  V30 7 C 19.3663 -2.6007 0.0 0 CFG=2
M  V30 8 C 15.3356 -0.7898 0.0 0
M  V30 9 C 20.6973 -0.5455 0.0 0
M  V30 10 O 18.7006 -3.3468 0.0 0
M  V30 11 C 20.3454 -2.8041 0.0 0
M  V30 12 C 14.7224 0.0 0.0 0 CFG=2
M  V30 13 O 21.4584 -1.1941 0.0 0
M  V30 14 C 21.2362 0.2967 0.0 0 CFG=1
M  V30 15 N 13.8564 -0.5 0.0 0
M  V30 16 C 14.345 0.926 0.0 0
M  V30 17 N 21.5278 1.2533 0.0 0
M  V30 18 C 22.1441 -0.1223 0.0 0
M  V30 19 C 13.8564 -1.5 0.0 0
M  V30 20 O 13.3762 0.6782 0.0 0
M  V30 21 N 14.2314 1.9195 0.0 0
M  V30 22 C 21.5506 2.253 0.0 0
M  V30 23 C 22.9611 0.4542 0.0 0
M  V30 24 O 14.7224 -2.0 0.0 0
M  V30 25 C 12.9903 -1.9999 0.0 0 CFG=1
M  V30 26 C 14.3901 2.9069 0.0 0 CFG=2
M  V30 27 O 22.5441 2.3666 0.0 0
M  V30 28 C 21.3028 3.2218 0.0 0 CFG=1
M  V30 29 N 23.869 0.0351 0.0 0
M  V30 30 N 12.9903 -2.9999 0.0 0
M  V30 31 C 12.1243 -1.4999 0.0 0
M  V30 32 C 14.8092 3.8148 0.0 0
M  V30 33 C 13.4335 3.1985 0.0 0
M  V30 34 N 20.8028 4.0878 0.0 0
M  V30 35 C 22.2288 3.5992 0.0 0
M  V30 36 C 12.1243 -3.4999 0.0 0
M  V30 37 C 11.2583 -1.9999 0.0 0
M  V30 38 O 13.9669 4.3537 0.0 0
M  V30 39 N 15.4578 4.5759 0.0 0
M  V30 40 C 12.7027 2.5159 0.0 0
M  V30 41 C 20.0877 4.7868 0.0 0
M  V30 42 C 22.365 4.5899 0.0 0
M  V30 43 O 11.2583 -2.9999 0.0 0
M  V30 44 C 12.1243 -4.4999 0.0 0 CFG=1
M  V30 45 N 10.3923 -1.4999 0.0 0
M  V30 46 C 16.2877 5.1338 0.0 0 CFG=1
M  V30 47 N 11.7462 2.8076 0.0 0
M  V30 48 O 20.6828 5.5905 0.0 0
M  V30 49 C 19.2105 5.267 0.0 0 CFG=1
M  V30 50 N 23.2911 4.9673 0.0 0
M  V30 51 N 11.2583 -4.9999 0.0 0
M  V30 52 C 12.9903 -4.9999 0.0 0 CFG=2
M  V30 53 C 17.2373 5.4472 0.0 0
M  V30 54 C 15.848 6.032 0.0 0
M  V30 55 N 18.2363 5.4927 0.0 0
M  V30 56 C 19.5668 6.2014 0.0 0
M  V30 57 C 11.2583 -5.9999 0.0 0
M  V30 58 O 13.8564 -4.4999 0.0 0
M  V30 59 C 12.9903 -5.9999 0.0 0
M  V30 60 O 17.0562 6.4306 0.0 0
M  V30 61 C 14.8503 6.1002 0.0 0
M  V30 62 C 18.9357 6.9771 0.0 0
M  V30 63 O 12.1243 -6.4999 0.0 0
M  V30 64 C 10.3923 -6.4999 0.0 0 CFG=1
M  V30 65 C 14.2924 5.2703 0.0 0
M  V30 66 C 14.4106 6.9983 0.0 0
M  V30 67 C 17.9483 6.8184 0.0 0
M  V30 68 C 19.2919 7.9115 0.0 0
M  V30 69 N 10.3923 -7.4999 0.0 0
M  V30 70 C 9.5262 -5.9999 0.0 0
M  V30 71 C 9.5262 -7.9999 0.0 0
M  V30 72 C 8.6602 -6.4999 0.0 0
M  V30 73 O 8.6602 -7.4999 0.0 0
M  V30 74 C 9.5262 -8.9999 0.0 0
M  V30 75 N 7.7942 -5.9999 0.0 0
M  V30 76 C 8.6602 -9.4999 0.0 0
M  V30 77 C 8.6602 -10.4999 0.0 0
M  V30 78 C 7.7942 -10.9999 0.0 0 CFG=1
M  V30 79 C 7.7942 -11.9999 0.0 0
M  V30 80 C 6.9282 -10.4999 0.0 0
M  V30 81 C 6.9282 -12.4999 0.0 0
M  V30 END ATOM
M  V30 BEGIN BOND
M  V30 1 2 1 2
M  V30 2 1 2 3
M  V30 3 1 4 2
M  V30 4 1 3 5
M  V30 5 1 4 6 CFG=1
M  V30 6 1 7 4
M  V30 7 1 5 8
M  V30 8 1 6 9
M  V30 9 1 7 10 CFG=1
M  V30 10 1 7 11
M  V30 11 1 12 8
M  V30 12 2 9 13
M  V30 13 1 14 9
M  V30 14 1 12 15 CFG=3
M  V30 15 1 12 16
M  V30 16 1 14 17
M  V30 17 1 14 18 CFG=1
M  V30 18 1 15 19
M  V30 19 2 16 20
M  V30 20 1 16 21
M  V30 21 1 17 22
M  V30 22 1 18 23
M  V30 23 2 19 24
M  V30 24 1 25 19
M  V30 25 1 26 21
M  V30 26 2 22 27
M  V30 27 1 28 22
M  V30 28 1 23 29
M  V30 29 1 25 30 CFG=1
M  V30 30 1 25 31
M  V30 31 1 26 32
M  V30 32 1 26 33 CFG=1
M  V30 33 1 28 34
M  V30 34 1 28 35 CFG=1
M  V30 35 1 30 36
M  V30 36 1 31 37
M  V30 37 2 32 38
M  V30 38 1 32 39
M  V30 39 1 33 40
M  V30 40 1 34 41
M  V30 41 1 35 42
M  V30 42 2 36 43
M  V30 43 1 44 36
M  V30 44 1 37 45
M  V30 45 1 46 39
M  V30 46 1 40 47
M  V30 47 2 41 48
M  V30 48 1 49 41
M  V30 49 1 42 50
M  V30 50 1 44 51 CFG=3
M  V30 51 1 52 44
M  V30 52 1 46 53
M  V30 53 1 46 54 CFG=3
M  V30 54 1 49 55
M  V30 55 1 49 56 CFG=1
M  V30 56 1 51 57
M  V30 57 1 52 58 CFG=3
M  V30 58 1 52 59
M  V30 59 2 53 60
M  V30 60 1 54 61
M  V30 61 1 56 62
M  V30 62 2 57 63
M  V30 63 1 64 57
M  V30 64 1 61 65
M  V30 65 1 61 66
M  V30 66 1 62 67
M  V30 67 1 62 68
M  V30 68 1 64 69 CFG=1
M  V30 69 1 64 70
M  V30 70 1 69 71
M  V30 71 1 70 72
M  V30 72 2 71 73
M  V30 73 1 71 74
M  V30 74 1 72 75
M  V30 75 1 74 76
M  V30 76 1 76 77
M  V30 77 1 78 77
M  V30 78 1 78 79
M  V30 79 1 78 80 CFG=1
M  V30 80 1 79 81
M  V30 81 1 53 55
M  V30 END BOND
M  V30 BEGIN COLLECTION
M  V30 MDLV30/STERAC1 ATOMS=(13 4 7 12 14 25 26 28 44 46 49 52 64 78)
M  V30 END COLLECTION
M  V30 END CTAB
M  END
>  <Molecule Name>


>  <status>
-

>  <cas>
1066-17-7

>  <name>
COLISTIN

>  <ID>
1312

>  <Smiles>
CC[C@@H](C)CCCC(N[C@@H](CCN)C(N[C@@H]([C@@H](C)O)C(N[C@@H](CCN)C(N[C@@H](CCNC([C@H]([C@@H](C)O)NC([C@H](CCN)NC([C@H](CCN)NC([C@H](CC(C)C)NC([C@@H](CC(C)C)NC([C@H](CCN)N1)=O)=O)=O)=O)=O)=O)C1=O)=O)=O)=O)=O

$$$$

Actelion Java MolfileCreator 2.0

  0  0  0  0  0  0              0 V3000
M  V30 BEGIN CTAB
M  V30 COUNTS 96 101 0 0 0
M  V30 BEGIN ATOM
M  V30 1 S 22.9943 1.0065 0.0 0 CHG=1
M  V30 2 C 22.0432 1.3155 0.0 0
M  V30 3 C 23.7375 1.6757 0.0 0
M  V30 4 C 23.2022 0.0284 0.0 0
M  V30 5 C 21.3001 0.6464 0.0 0
M  V30 6 C 20.349 0.9554 0.0 0
M  V30 7 N 19.6059 0.2863 0.0 0
M  V30 8 C 18.6548 0.5953 0.0 0
M  V30 9 O 18.4469 1.5735 0.0 0
M  V30 10 C 17.9117 -0.0737 0.0 0
M  V30 11 N 16.9336 0.1341 0.0 0
M  V30 12 C 18.0162 -1.0682 0.0 0
M  V30 13 C 16.4336 -0.7318 0.0 0
M  V30 14 S 17.1027 -1.475 0.0 0
M  V30 15 C 15.439 -0.8364 0.0 0
M  V30 16 N 14.7699 -0.0932 0.0 0
M  V30 17 C 14.939 -1.7024 0.0 0
M  V30 18 C 13.8564 -0.5 0.0 0
M  V30 19 S 13.9609 -1.4945 0.0 0
M  V30 20 C 12.9903 0.0 0.0 0
M  V30 21 C 12.1243 -0.5 0.0 0
M  V30 22 N 11.2583 0.0 0.0 0
M  V30 23 C 10.3923 -0.5 0.0 0
M  V30 24 O 10.3923 -1.5 0.0 0
M  V30 25 C 9.5262 0.0 0.0 0 CFG=2
M  V30 26 N 8.6602 -0.5 0.0 0
M  V30 27 C 9.5262 1.0 0.0 0 CFG=1
M  V30 28 C 7.7942 0.0 0.0 0
M  V30 29 O 10.3923 1.5 0.0 0
M  V30 30 C 8.6602 1.5 0.0 0
M  V30 31 O 7.7942 0.9999 0.0 0
M  V30 32 C 6.9282 -0.5 0.0 0 CFG=1
M  V30 33 C 6.0621 0.0 0.0 0 CFG=1
M  V30 34 C 6.9282 -1.4999 0.0 0
M  V30 35 O 6.0621 0.9999 0.0 0
M  V30 36 C 5.1961 -0.5 0.0 0 CFG=1
M  V30 37 N 4.3301 0.0 0.0 0
M  V30 38 C 5.1961 -1.4999 0.0 0
M  V30 39 C 3.4641 -0.5 0.0 0
M  V30 40 O 3.4641 -1.5 0.0 0
M  V30 41 C 2.598 0.0 0.0 0 CFG=2
M  V30 42 N 2.598 0.9999 0.0 0
M  V30 43 C 1.732 -0.5 0.0 0 CFG=2
M  V30 44 C 3.4641 1.4999 0.0 0
M  V30 45 O 0.866 0.0 0.0 0
M  V30 46 C 1.732 -1.5 0.0 0
M  V30 47 O 4.3301 0.9999 0.0 0
M  V30 48 C 3.4641 2.4999 0.0 0
M  V30 49 C 0.0 -0.5 0.0 0 CFG=1
M  V30 50 N 0.923 -2.0877 0.0 0
M  V30 51 C 2.541 -2.0877 0.0 0
M  V30 52 N 2.598 3.0 0.0 0
M  V30 53 C 4.3301 3.0 0.0 0
M  V30 54 O 0.0 -1.4999 0.0 0
M  V30 55 C -0.866 0.0 0.0 0 CFG=2
M  V30 56 C 1.232 -3.0388 0.0 0
M  V30 57 N 2.232 -3.0388 0.0 0
M  V30 58 C 2.598 4.0 0.0 0
M  V30 59 C 4.3301 3.9999 0.0 0
M  V30 60 C 5.1961 2.4999 0.0 0
M  V30 61 C -0.866 -2.0 0.0 0 CFG=1
M  V30 62 O -0.866 0.9999 0.0 0
M  V30 63 C -1.732 -0.5 0.0 0 CFG=1
M  V30 64 N 3.4641 4.5 0.0 0
M  V30 65 C 1.732 4.5 0.0 0 CFG=2
M  V30 66 N 5.1961 4.5 0.0 0
M  V30 67 C -1.732 -1.5 0.0 0 CFG=1
M  V30 68 C -0.866 -3.0 0.0 0
M  V30 69 C -1.732 1.4999 0.0 0 CFG=2
M  V30 70 O -2.598 0.0 0.0 0
M  V30 71 N 1.732 5.4999 0.0 0
M  V30 72 C 0.866 3.9999 0.0 0
M  V30 73 O -2.598 -2.0 0.0 0
M  V30 74 O -1.732 -3.5 0.0 0
M  V30 75 O -2.598 1.0 0.0 0
M  V30 76 C -1.732 2.4999 0.0 0 CFG=2
M  V30 77 C 2.598 6.0 0.0 0
M  V30 78 C 0.866 2.9999 0.0 0
M  V30 79 C -3.4641 1.5 0.0 0 CFG=2
M  V30 80 O -0.866 2.9999 0.0 0
M  V30 81 C -2.598 3.0 0.0 0 CFG=1
M  V30 82 C 2.598 7.0 0.0 0 CFG=1
M  V30 83 O 0.0 2.4999 0.0 0
M  V30 84 N 1.732 2.4999 0.0 0
M  V30 85 C -3.4641 2.5 0.0 0 CFG=1
M  V30 86 C -4.3301 1.0 0.0 0
M  V30 87 O -2.598 4.0 0.0 0
M  V30 88 N 1.732 7.5 0.0 0
M  V30 89 C 3.4641 7.5 0.0 0
M  V30 90 O -4.3301 3.0 0.0 0
M  V30 91 O -5.1961 1.5 0.0 0
M  V30 92 C -3.4641 4.5 0.0 0
M  V30 93 O 4.3301 7.0 0.0 0
M  V30 94 N 3.4641 8.5 0.0 0
M  V30 95 O -4.3301 4.0 0.0 0
M  V30 96 N -3.4641 5.5 0.0 0
M  V30 END ATOM
M  V30 BEGIN BOND
M  V30 1 1 1 2
M  V30 2 1 1 3
M  V30 3 1 1 4
M  V30 4 1 2 5
M  V30 5 1 5 6
M  V30 6 1 6 7
M  V30 7 1 7 8
M  V30 8 2 8 9
M  V30 9 1 8 10
M  V30 10 1 10 11
M  V30 11 2 10 12
M  V30 12 2 11 13
M  V30 13 1 12 14
M  V30 14 1 13 15
M  V30 15 1 15 16
M  V30 16 2 15 17
M  V30 17 2 16 18
M  V30 18 1 17 19
M  V30 19 1 18 20
M  V30 20 1 20 21
M  V30 21 1 21 22
M  V30 22 1 22 23
M  V30 23 2 23 24
M  V30 24 1 25 23
M  V30 25 1 25 26 CFG=3
M  V30 26 1 27 25
M  V30 27 1 26 28
M  V30 28 1 27 29 CFG=3
M  V30 29 1 27 30
M  V30 30 2 28 31
M  V30 31 1 32 28
M  V30 32 1 33 32
M  V30 33 1 32 34 CFG=3
M  V30 34 1 33 35 CFG=3
M  V30 35 1 36 33
M  V30 36 1 36 37 CFG=3
M  V30 37 1 36 38
M  V30 38 1 37 39
M  V30 39 2 39 40
M  V30 40 1 41 39
M  V30 41 1 41 42 CFG=1
M  V30 42 1 43 41
M  V30 43 1 42 44
M  V30 44 1 43 45 CFG=1
M  V30 45 1 43 46
M  V30 46 2 44 47
M  V30 47 1 44 48
M  V30 48 1 49 45 CFG=1
M  V30 49 1 46 50
M  V30 50 2 46 51
M  V30 51 2 48 52
M  V30 52 1 48 53
M  V30 53 1 49 54
M  V30 54 1 55 49
M  V30 55 1 50 56
M  V30 56 1 51 57
M  V30 57 1 52 58
M  V30 58 2 53 59
M  V30 59 1 53 60
M  V30 60 1 61 54
M  V30 61 1 55 62 CFG=1
M  V30 62 1 63 55
M  V30 63 2 58 64
M  V30 64 1 65 58
M  V30 65 1 59 66
M  V30 66 1 67 61
M  V30 67 1 61 68 CFG=3
M  V30 68 1 69 62 CFG=3
M  V30 69 1 63 70 CFG=1
M  V30 70 1 65 71 CFG=1
M  V30 71 1 65 72
M  V30 72 1 67 73 CFG=3
M  V30 73 1 68 74
M  V30 74 1 69 75
M  V30 75 1 76 69
M  V30 76 1 71 77
M  V30 77 1 72 78
M  V30 78 1 79 75
M  V30 79 1 76 80 CFG=1
M  V30 80 1 81 76
M  V30 81 1 82 77
M  V30 82 2 78 83
M  V30 83 1 78 84
M  V30 84 1 85 79
M  V30 85 1 79 86 CFG=1
M  V30 86 1 81 87 CFG=1
M  V30 87 1 82 88 CFG=1
M  V30 88 1 82 89
M  V30 89 1 85 90 CFG=3
M  V30 90 1 86 91
M  V30 91 1 87 92
M  V30 92 2 89 93
M  V30 93 1 89 94
M  V30 94 2 92 95
M  V30 95 1 92 96
M  V30 96 1 13 14
M  V30 97 1 18 19
M  V30 98 2 56 57
M  V30 99 1 59 64
M  V30 100 1 63 67
M  V30 101 1 81 85
M  V30 END BOND
M  V30 BEGIN COLLECTION
M  V30 MDLV30/STERAC1 ATOMS=(19 25 27 32 33 36 41 43 49 55 61 63 65 67 69 76 79 81 82 85)
M  V30 END COLLECTION
M  V30 END CTAB
M  END
>  <Molecule Name>


>  <status>
-

>  <cas>
11056-06-7

>  <name>
BLEOMYCIN

>  <ID>
1313

>  <Smiles>
C[C@H]([C@H]([C@H](C)NC([C@@H]([C@@H](c1cnc[nH]1)O[C@H]([C@@H]([C@@H]1O)O[C@@H]([C@@H]([C@@H]2OC(N)=O)O)O[C@@H](CO)[C@@H]2O)O[C@H](CO)[C@@H]1O)NC(c1nc([C@@H](CC(N)=O)NC[C@H](C(N)=O)N)nc(N)c1C)=O)=O)O)C(N[C@H]([C@H](C)O)C(NCCc1nc(-c2nc(C(NCCC[S+](C)C)=O)cs2)cs1)=O)=O

$$$$

Actelion Java MolfileCreator 2.0

  0  0  0  0  0  0              0 V3000
M  V30 BEGIN CTAB
M  V30 COUNTS 32 34 0 0 0
M  V30 BEGIN ATOM
M  V30 1 O 2.598 -2.25 0.0 0
M  V30 2 C 2.598 -0.75 0.0 0 CFG=2
M  V30 3 C 3.8971 -3.0 0.0 0 CFG=1
M  V30 4 O 1.299 0.0 0.0 0
M  V30 5 C 3.8971 0.0 0.0 0 CFG=2
M  V30 6 C 5.1961 -2.25 0.0 0 CFG=2
M  V30 7 C 3.8971 -4.5 0.0 0
M  V30 8 C 0.0 -0.75 0.0 0 CFG=2
M  V30 9 O 3.8971 1.4999 0.0 0
M  V30 10 C 5.1961 -0.75 0.0 0 CFG=2
M  V30 11 O 6.4951 -3.0 0.0 0
M  V30 12 O 2.598 -5.25 0.0 0
M  V30 13 C -1.299 0.0 0.0 0 CFG=1
M  V30 14 C 0.0 -2.25 0.0 0 CFG=2
M  V30 15 N 6.4951 0.0 0.0 0
M  V30 16 O -1.299 1.5 0.0 0
M  V30 17 C -2.598 -0.7499 0.0 0 CFG=2
M  V30 18 N 1.299 -3.0 0.0 0
M  V30 19 C -1.299 -2.9999 0.0 0
M  V30 20 O -3.8971 0.0 0.0 0
M  V30 21 C -2.598 -2.2499 0.0 0 CFG=2
M  V30 22 C -5.1961 -0.7499 0.0 0 CFG=1
M  V30 23 N -3.8971 -2.9999 0.0 0
M  V30 24 O -5.1961 -2.2499 0.0 0
M  V30 25 C -6.4951 0.0 0.0 0 CFG=2
M  V30 26 C -6.4951 -2.9999 0.0 0 CFG=1
M  V30 27 N -6.4951 1.5 0.0 0
M  V30 28 C -7.7942 -0.7499 0.0 0
M  V30 29 C -7.7942 -2.2499 0.0 0 CFG=2
M  V30 30 C -6.4951 -4.4999 0.0 0
M  V30 31 O -9.0932 -2.9999 0.0 0
M  V30 32 N -7.7942 -5.2499 0.0 0
M  V30 END ATOM
M  V30 BEGIN BOND
M  V30 1 1 2 1
M  V30 2 1 3 1
M  V30 3 1 2 4 CFG=3
M  V30 4 1 5 2
M  V30 5 1 6 3
M  V30 6 1 3 7 CFG=1
M  V30 7 1 8 4 CFG=1
M  V30 8 1 5 9 CFG=3
M  V30 9 1 10 5
M  V30 10 1 6 11 CFG=3
M  V30 11 1 7 12
M  V30 12 1 13 8
M  V30 13 1 14 8
M  V30 14 1 10 15 CFG=1
M  V30 15 1 13 16 CFG=3
M  V30 16 1 17 13
M  V30 17 1 14 18 CFG=3
M  V30 18 1 14 19
M  V30 19 1 17 20 CFG=1
M  V30 20 1 21 17
M  V30 21 1 22 20 CFG=1
M  V30 22 1 21 23 CFG=3
M  V30 23 1 22 24
M  V30 24 1 25 22
M  V30 25 1 26 24
M  V30 26 1 25 27 CFG=1
M  V30 27 1 25 28
M  V30 28 1 29 26
M  V30 29 1 26 30 CFG=3
M  V30 30 1 29 31 CFG=1
M  V30 31 1 30 32
M  V30 32 1 6 10
M  V30 33 1 19 21
M  V30 34 1 28 29
M  V30 END BOND
M  V30 BEGIN COLLECTION
M  V30 MDLV30/STERAC1 ATOMS=(14 2 3 5 6 8 10 13 14 17 21 22 25 26 29)
M  V30 END COLLECTION
M  V30 END CTAB
M  END
>  <Molecule Name>


>  <status>
-

>  <cas>
32986-56-4

>  <name>
TOBRAMYCIN

>  <ID>
1314

>  <Smiles>
NC[C@H]([C@H](C[C@H]1N)O)O[C@@H]1O[C@H]([C@H](C[C@H]([C@@H]1O[C@H]([C@@H]([C@H]2N)O)O[C@H](CO)[C@H]2O)N)N)[C@@H]1O

$$$$

Actelion Java MolfileCreator 2.0

  0  0  0  0  0  0              0 V3000
M  V30 BEGIN CTAB
M  V30 COUNTS 36 39 0 0 0
M  V30 BEGIN ATOM
M  V30 1 S 11.66 -1.0978 0.0 0
M  V30 2 O 11.8168 -2.5896 0.0 0
M  V30 3 O 11.5032 0.3939 0.0 0
M  V30 4 N 10.1682 -1.2546 0.0 0
M  V30 5 C 13.1518 -0.941 0.0 0
M  V30 6 C 9.1645 -0.1398 0.0 0
M  V30 7 C 9.4182 -2.5536 0.0 0
M  V30 8 O 9.4764 1.3273 0.0 0
M  V30 9 N 7.7942 -0.75 0.0 0
M  V30 10 C 7.951 -2.2417 0.0 0
M  V30 11 C 6.4951 0.0 0.0 0
M  V30 12 O 6.4951 1.5 0.0 0
M  V30 13 N 5.1961 -0.75 0.0 0
M  V30 14 C 3.8971 0.0 0.0 0 CFG=1
M  V30 15 C 3.8971 1.5 0.0 0
M  V30 16 C 2.598 -0.75 0.0 0
M  V30 17 C 5.1961 2.25 0.0 0
M  V30 18 C 2.598 2.25 0.0 0
M  V30 19 O 2.598 -2.25 0.0 0
M  V30 20 N 1.299 0.0 0.0 0
M  V30 21 C 5.1961 3.75 0.0 0
M  V30 22 C 2.598 3.75 0.0 0
M  V30 23 C 0.0 -0.75 0.0 0 CFG=1
M  V30 24 C 3.8971 4.5 0.0 0
M  V30 25 C -1.4488 -0.3617 0.0 0
M  V30 26 C -0.3882 -2.1988 0.0 0 CFG=1
M  V30 27 O -2.1988 0.9372 0.0 0
M  V30 28 N -1.8371 -1.8106 0.0 0
M  V30 29 S -0.3097 -3.6968 0.0 0
M  V30 30 C -2.654 -3.0686 0.0 0 CFG=1
M  V30 31 C -1.71 -4.2343 0.0 0
M  V30 32 C -4.152 -3.1471 0.0 0
M  V30 33 C -2.7707 -5.295 0.0 0
M  V30 34 C -1.3218 -5.6832 0.0 0
M  V30 35 O -4.9689 -1.8891 0.0 0
M  V30 36 O -4.833 -4.4836 0.0 0 CHG=-1
M  V30 END ATOM
M  V30 BEGIN BOND
M  V30 1 2 1 2
M  V30 2 2 1 3
M  V30 3 1 1 4
M  V30 4 1 1 5
M  V30 5 1 4 6
M  V30 6 1 4 7
M  V30 7 2 6 8
M  V30 8 1 6 9
M  V30 9 1 7 10
M  V30 10 1 9 11
M  V30 11 2 11 12
M  V30 12 1 11 13
M  V30 13 1 14 13 CFG=3
M  V30 14 1 14 15
M  V30 15 1 14 16
M  V30 16 2 15 17
M  V30 17 1 15 18
M  V30 18 2 16 19
M  V30 19 1 16 20
M  V30 20 1 17 21
M  V30 21 2 18 22
M  V30 22 1 23 20 CFG=3
M  V30 23 2 21 24
M  V30 24 1 23 25
M  V30 25 1 26 23
M  V30 26 2 25 27
M  V30 27 1 25 28
M  V30 28 1 26 29 CFG=3
M  V30 29 1 30 28
M  V30 30 1 29 31
M  V30 31 1 30 32 CFG=1
M  V30 32 1 31 33
M  V30 33 1 31 34
M  V30 34 2 32 35
M  V30 35 1 32 36
M  V30 36 1 9 10
M  V30 37 1 22 24
M  V30 38 1 26 28
M  V30 39 1 30 31
M  V30 END BOND
M  V30 BEGIN COLLECTION
M  V30 MDLV30/STERAC1 ATOMS=(4 14 23 26 30)
M  V30 END COLLECTION
M  V30 END CTAB
M  END
>  <Molecule Name>


>  <status>
DISCONTINUED

>  <cas>
51481-65-3

>  <name>
MEZLOCILLIN

>  <ID>
1315

>  <Smiles>
CC(C)([C@H]1C([O-])=O)S[C@@H]([C@H]2NC([C@H](c3ccccc3)NC(N(CCN3S(C)(=O)=O)C3=O)=O)=O)N1C2=O

$$$$

Actelion Java MolfileCreator 2.0

  0  0  0  0  0  0              0 V3000
M  V30 BEGIN CTAB
M  V30 COUNTS 18 19 0 0 0
M  V30 BEGIN ATOM
M  V30 1 O 4.3301 0.0 0.0 0
M  V30 2 C 3.4641 -0.5 0.0 0
M  V30 3 O 2.598 0.0 0.0 0
M  V30 4 C 3.4641 -1.5 0.0 0
M  V30 5 O 1.732 -0.5 0.0 0
M  V30 6 C 2.598 -1.9999 0.0 0
M  V30 7 C 4.3301 -2.0 0.0 0
M  V30 8 C 0.866 0.0 0.0 0
M  V30 9 C 2.598 -2.9999 0.0 0
M  V30 10 C 4.3301 -3.0 0.0 0
M  V30 11 O 0.866 1.0 0.0 0
M  V30 12 C 0.0 -0.5 0.0 0
M  V30 13 C 3.4641 -3.5 0.0 0
M  V30 14 C -0.866 0.0 0.0 0
M  V30 15 C 0.0 -1.4999 0.0 0
M  V30 16 C -1.732 -0.4999 0.0 0
M  V30 17 C -0.866 -1.9999 0.0 0
M  V30 18 C -1.732 -1.4999 0.0 0
M  V30 END ATOM
M  V30 BEGIN BOND
M  V30 1 2 1 2
M  V30 2 1 2 3
M  V30 3 1 2 4
M  V30 4 1 3 5
M  V30 5 2 4 6
M  V30 6 1 4 7
M  V30 7 1 5 8
M  V30 8 1 6 9
M  V30 9 2 7 10
M  V30 10 2 8 11
M  V30 11 1 8 12
M  V30 12 2 9 13
M  V30 13 2 12 14
M  V30 14 1 12 15
M  V30 15 1 14 16
M  V30 16 2 15 17
M  V30 17 2 16 18
M  V30 18 1 10 13
M  V30 19 1 17 18
M  V30 END BOND
M  V30 END CTAB
M  END
>  <Molecule Name>


>  <status>
-

>  <cas>
94-36-0

>  <name>
BENZOYL PEROXIDE

>  <ID>
1316

>  <Smiles>
O=C(c1ccccc1)OOC(c1ccccc1)=O

$$$$

Actelion Java MolfileCreator 2.0

  0  0  0  0  0  0              0 V3000
M  V30 BEGIN CTAB
M  V30 COUNTS 36 39 0 0 0
M  V30 BEGIN ATOM
M  V30 1 S 7.7057 -7.3202 0.0 0
M  V30 2 C 6.645 -6.2595 0.0 0 CFG=2
M  V30 3 C 9.1545 -6.9319 0.0 0
M  V30 4 N 7.0332 -4.8106 0.0 0
M  V30 5 C 5.1961 -5.8713 0.0 0 CFG=1
M  V30 6 C 9.5428 -5.483 0.0 0
M  V30 7 C 8.4821 -4.4224 0.0 0
M  V30 8 C 5.5843 -4.4224 0.0 0
M  V30 9 O 4.0061 -4.9581 0.0 0
M  V30 10 N 3.8971 -6.6213 0.0 0
M  V30 11 C 10.9917 -5.0948 0.0 0
M  V30 12 C 8.8703 -2.9735 0.0 0
M  V30 13 O 4.8343 -3.1233 0.0 0
M  V30 14 C 2.6203 -5.5322 0.0 0
M  V30 15 C 3.8971 -8.1213 0.0 0
M  V30 16 S 12.0523 -6.1555 0.0 0
M  V30 17 O 10.3192 -2.5853 0.0 0
M  V30 18 O 7.8097 -1.9128 0.0 0 CHG=-1
M  V30 19 O 2.598 -8.8713 0.0 0
M  V30 20 C 5.1961 -8.8713 0.0 0 CFG=1
M  V30 21 C 13.5012 -5.7672 0.0 0
M  V30 22 S 6.645 -8.483 0.0 0
M  V30 23 S 5.5843 -10.3202 0.0 0
M  V30 24 N 14.6669 -6.7112 0.0 0
M  V30 25 N 14.0388 -4.3669 0.0 0
M  V30 26 C 7.0332 -9.9319 0.0 0
M  V30 27 N 15.9249 -5.8943 0.0 0
M  V30 28 N 15.5367 -4.4454 0.0 0
M  V30 29 C 13.2218 -3.1089 0.0 0
M  V30 30 C 8.3323 -10.6819 0.0 0
M  V30 31 C 9.6313 -9.9319 0.0 0
M  V30 32 C 8.3323 -12.1819 0.0 0
M  V30 33 O 9.6313 -8.4319 0.0 0
M  V30 34 O 10.9303 -10.6819 0.0 0 CHG=-1
M  V30 35 O 9.6313 -12.9319 0.0 0
M  V30 36 N 7.0332 -12.9319 0.0 0
M  V30 END ATOM
M  V30 BEGIN BOND
M  V30 1 1 2 1 CFG=1
M  V30 2 1 1 3
M  V30 3 1 2 4
M  V30 4 1 5 2
M  V30 5 1 3 6
M  V30 6 1 4 7
M  V30 7 1 4 8
M  V30 8 1 5 9 CFG=3
M  V30 9 1 5 10
M  V30 10 1 6 11
M  V30 11 1 7 12
M  V30 12 2 8 13
M  V30 13 1 9 14
M  V30 14 1 10 15
M  V30 15 1 11 16
M  V30 16 2 12 17
M  V30 17 1 12 18
M  V30 18 2 15 19
M  V30 19 1 20 15 CFG=1
M  V30 20 1 16 21
M  V30 21 1 20 22
M  V30 22 1 20 23
M  V30 23 2 21 24
M  V30 24 1 21 25
M  V30 25 1 22 26
M  V30 26 1 24 27
M  V30 27 1 25 28
M  V30 28 1 25 29
M  V30 29 2 26 30
M  V30 30 1 30 31
M  V30 31 1 30 32
M  V30 32 2 31 33
M  V30 33 1 31 34
M  V30 34 2 32 35
M  V30 35 1 32 36
M  V30 36 1 5 8
M  V30 37 2 6 7
M  V30 38 1 23 26
M  V30 39 2 27 28
M  V30 END BOND
M  V30 BEGIN COLLECTION
M  V30 MDLV30/STEABS ATOMS=(1 20)
M  V30 MDLV30/STERAC1 ATOMS=(2 2 5)
M  V30 END COLLECTION
M  V30 END CTAB
M  END
>  <Molecule Name>


>  <status>
-

>  <cas>
69712-56-7

>  <name>
CEFOTETAN

>  <ID>
1317

>  <Smiles>
Cn1nnnc1SCC(CS[C@H]1[C@]2(NC([C@@H](S3)S/C3=C(\C(N)=O)/C([O-])=O)=O)OC)=C(C([O-])=O)N1C2=O

$$$$

Actelion Java MolfileCreator 2.0

  0  0  0  0  0  0              0 V3000
M  V30 BEGIN CTAB
M  V30 COUNTS 33 35 0 0 0
M  V30 BEGIN ATOM
M  V30 1 O 1.732 -1.4999 0.0 0
M  V30 2 C 1.732 -0.5 0.0 0 CFG=2
M  V30 3 C 2.598 -2.0 0.0 0 CFG=1
M  V30 4 O 0.866 0.0 0.0 0
M  V30 5 C 2.598 0.0 0.0 0 CFG=2
M  V30 6 C 3.4641 -1.5 0.0 0 CFG=2
M  V30 7 C 2.598 -3.0 0.0 0
M  V30 8 C 0.0 -0.5 0.0 0 CFG=2
M  V30 9 O 2.598 0.9999 0.0 0
M  V30 10 C 3.4641 -0.5 0.0 0 CFG=2
M  V30 11 O 4.3301 -2.0 0.0 0
M  V30 12 O 1.732 -3.4999 0.0 0
M  V30 13 C -0.866 0.0 0.0 0 CFG=1
M  V30 14 C 0.0 -1.4999 0.0 0 CFG=2
M  V30 15 N 4.3301 0.0 0.0 0
M  V30 16 O -0.866 1.0 0.0 0
M  V30 17 C -1.732 -0.4999 0.0 0 CFG=2
M  V30 18 N 0.866 -2.0 0.0 0
M  V30 19 C -0.866 -1.9999 0.0 0
M  V30 20 O -2.598 0.0 0.0 0
M  V30 21 C -1.732 -1.4999 0.0 0 CFG=2
M  V30 22 C -3.4641 -0.4999 0.0 0 CFG=1
M  V30 23 N -2.598 -1.9999 0.0 0
M  V30 24 O -3.4641 -1.4999 0.0 0
M  V30 25 C -4.3301 0.0 0.0 0 CFG=2
M  V30 26 C -4.3301 -1.9999 0.0 0 CFG=1
M  V30 27 O -4.3301 1.0 0.0 0
M  V30 28 C -5.1961 -0.4999 0.0 0 CFG=2
M  V30 29 C -5.1961 -1.4999 0.0 0 CFG=2
M  V30 30 C -4.3301 -2.9999 0.0 0
M  V30 31 O -6.0621 0.0 0.0 0
M  V30 32 O -6.0621 -1.9999 0.0 0
M  V30 33 N -5.1961 -3.4999 0.0 0
M  V30 END ATOM
M  V30 BEGIN BOND
M  V30 1 1 2 1
M  V30 2 1 3 1
M  V30 3 1 2 4 CFG=3
M  V30 4 1 5 2
M  V30 5 1 6 3
M  V30 6 1 3 7 CFG=1
M  V30 7 1 8 4 CFG=1
M  V30 8 1 5 9 CFG=3
M  V30 9 1 10 5
M  V30 10 1 6 11 CFG=3
M  V30 11 1 7 12
M  V30 12 1 13 8
M  V30 13 1 14 8
M  V30 14 1 10 15 CFG=1
M  V30 15 1 13 16 CFG=3
M  V30 16 1 17 13
M  V30 17 1 14 18 CFG=3
M  V30 18 1 14 19
M  V30 19 1 17 20 CFG=1
M  V30 20 1 21 17
M  V30 21 1 22 20 CFG=1
M  V30 22 1 21 23 CFG=3
M  V30 23 1 22 24
M  V30 24 1 25 22
M  V30 25 1 26 24
M  V30 26 1 25 27 CFG=1
M  V30 27 1 28 25
M  V30 28 1 29 26
M  V30 29 1 26 30 CFG=3
M  V30 30 1 28 31 CFG=3
M  V30 31 1 29 32 CFG=1
M  V30 32 1 30 33
M  V30 33 1 6 10
M  V30 34 1 19 21
M  V30 35 1 28 29
M  V30 END BOND
M  V30 BEGIN COLLECTION
M  V30 MDLV30/STERAC1 ATOMS=(15 2 3 5 6 8 10 13 14 17 21 22 25 26 28 29)
M  V30 END COLLECTION
M  V30 END CTAB
M  END
>  <Molecule Name>


>  <status>
DISCONTINUED

>  <cas>
59-01-8

>  <name>
KANAMYCIN

>  <ID>
1318

>  <Smiles>
NC[C@H]([C@H]([C@@H]([C@H]1O)O)O)O[C@@H]1O[C@H]([C@H](C[C@H]([C@@H]1O[C@H]([C@@H]([C@H]2N)O)O[C@H](CO)[C@H]2O)N)N)[C@@H]1O

$$$$

Actelion Java MolfileCreator 2.0

  0  0  0  0  0  0              0 V3000
M  V30 BEGIN CTAB
M  V30 COUNTS 11 11 0 0 0
M  V30 BEGIN ATOM
M  V30 1 O 5.1961 1.5 0.0 0
M  V30 2 C 4.3301 1.0 0.0 0
M  V30 3 C 3.4641 1.5 0.0 0
M  V30 4 C 4.3301 0.0 0.0 0
M  V30 5 C 2.598 0.9999 0.0 0
M  V30 6 C 3.4641 -0.4999 0.0 0
M  V30 7 C 2.598 0.0 0.0 0
M  V30 8 C 1.732 -0.5 0.0 0
M  V30 9 C 0.866 0.0 0.0 0 CFG=1
M  V30 10 N 0.866 1.0 0.0 0
M  V30 11 C 0.0 -0.5 0.0 0
M  V30 END ATOM
M  V30 BEGIN BOND
M  V30 1 1 1 2
M  V30 2 2 2 3
M  V30 3 1 2 4
M  V30 4 1 3 5
M  V30 5 2 4 6
M  V30 6 2 5 7
M  V30 7 1 7 8
M  V30 8 1 9 8
M  V30 9 1 9 10 CFG=3
M  V30 10 1 9 11
M  V30 11 1 6 7
M  V30 END BOND
M  V30 BEGIN COLLECTION
M  V30 MDLV30/STERAC1 ATOMS=(1 9)
M  V30 END COLLECTION
M  V30 END CTAB
M  END
>  <Molecule Name>


>  <status>
DISCONTINUED

>  <cas>
103-86-6

>  <name>
HYDROXYAMPHETAMINE

>  <ID>
1319

>  <Smiles>
CC(Cc(cc1)ccc1O)N

$$$$

Actelion Java MolfileCreator 2.0

  0  0  0  0  0  0              0 V3000
M  V30 BEGIN CTAB
M  V30 COUNTS 22 25 0 0 0
M  V30 BEGIN ATOM
M  V30 1 O 2.2397 8.9507 0.0 0
M  V30 2 C 2.083 7.4589 0.0 0
M  V30 3 C 3.2965 6.5772 0.0 0
M  V30 4 C 0.7126 6.8488 0.0 0
M  V30 5 C 3.1397 5.0854 0.0 0
M  V30 6 C 0.5558 5.357 0.0 0
M  V30 7 C 1.7694 4.4753 0.0 0 CFG=1
M  V30 8 C 4.3532 4.2037 0.0 0
M  V30 9 C 1.6126 2.9835 0.0 0 CFG=1
M  V30 10 C 0.399 3.8652 0.0 0
M  V30 11 C 4.1964 2.7119 0.0 0
M  V30 12 C 2.8261 2.1018 0.0 0 CFG=2
M  V30 13 C 0.2423 2.3734 0.0 0
M  V30 14 C 2.6693 0.6101 0.0 0 CFG=2
M  V30 15 C 0.0855 0.8816 0.0 0
M  V30 16 C 1.299 0.0 0.0 0 CFG=1
M  V30 17 C 3.673 -0.5046 0.0 0
M  V30 18 C 1.4558 -1.4917 0.0 0 CFG=1
M  V30 19 C 0.0 -0.75 0.0 0
M  V30 20 C 2.923 -1.8036 0.0 0
M  V30 21 O -0.0113 -1.8036 0.0 0
M  V30 22 C 0.9923 -2.9183 0.0 0
M  V30 END ATOM
M  V30 BEGIN BOND
M  V30 1 2 1 2
M  V30 2 1 2 3
M  V30 3 1 2 4
M  V30 4 2 3 5
M  V30 5 1 4 6
M  V30 6 1 7 5
M  V30 7 1 5 8
M  V30 8 1 9 7
M  V30 9 1 7 10 CFG=1
M  V30 10 1 8 11
M  V30 11 1 12 9
M  V30 12 1 9 13 CFG=1
M  V30 13 1 14 12
M  V30 14 1 13 15
M  V30 15 1 16 14
M  V30 16 1 14 17 CFG=1
M  V30 17 1 18 16
M  V30 18 1 16 19 CFG=1
M  V30 19 1 17 20
M  V30 20 1 18 21 CFG=1
M  V30 21 1 18 22
M  V30 22 1 6 7
M  V30 23 1 12 11 CFG=3
M  V30 24 1 15 16
M  V30 25 1 18 20
M  V30 END BOND
M  V30 BEGIN COLLECTION
M  V30 MDLV30/STERAC1 ATOMS=(6 7 9 12 14 16 18)
M  V30 END COLLECTION
M  V30 END CTAB
M  END
>  <Molecule Name>


>  <status>
-

>  <cas>
58-18-4

>  <name>
METHYLTESTOSTERONE

>  <ID>
1320

>  <Smiles>
C[C@@](CC1)([C@](C)(CC2)[C@H]1[C@@H](CC1)[C@@H]2[C@](C)(CC2)C1=CC2=O)O

$$$$

Actelion Java MolfileCreator 2.0

  0  0  0  0  0  0              0 V3000
M  V30 BEGIN CTAB
M  V30 COUNTS 13 14 0 0 0
M  V30 BEGIN ATOM
M  V30 1 O 1.299 0.0 0.0 0
M  V30 2 C 0.0 -0.75 0.0 0
M  V30 3 C -1.299 0.0 0.0 0
M  V30 4 C 0.0 -2.2499 0.0 0
M  V30 5 C -2.598 -0.7499 0.0 0
M  V30 6 C -1.299 1.5 0.0 0
M  V30 7 C -1.299 -2.9999 0.0 0
M  V30 8 C 1.299 -3.0 0.0 0
M  V30 9 C -2.598 -2.2499 0.0 0
M  V30 10 C -3.8971 0.0 0.0 0
M  V30 11 C -2.598 2.25 0.0 0
M  V30 12 O -3.8971 -2.9999 0.0 0
M  V30 13 C -3.8971 1.5 0.0 0
M  V30 END ATOM
M  V30 BEGIN BOND
M  V30 1 1 1 2
M  V30 2 1 2 3
M  V30 3 2 2 4
M  V30 4 1 3 5
M  V30 5 2 3 6
M  V30 6 1 4 7
M  V30 7 1 4 8
M  V30 8 1 5 9
M  V30 9 2 5 10
M  V30 10 1 6 11
M  V30 11 1 9 12
M  V30 12 1 10 13
M  V30 13 2 7 9
M  V30 14 2 11 13
M  V30 END BOND
M  V30 END CTAB
M  END
>  <Molecule Name>


>  <status>
DISCONTINUED

>  <cas>
481-85-6

>  <name>
MENADIOL

>  <ID>
1321

>  <Smiles>
Cc(cc(c1ccccc11)O)c1O

$$$$

Actelion Java MolfileCreator 2.0

  0  0  0  0  0  0              0 V3000
M  V30 BEGIN CTAB
M  V30 COUNTS 20 23 0 0 0
M  V30 BEGIN ATOM
M  V30 1 O 0.866 0.0 0.0 0
M  V30 2 C 0.0 -0.5 0.0 0
M  V30 3 C -0.9135 -0.0932 0.0 0 CFG=2
M  V30 4 C -0.1045 -1.4945 0.0 0
M  V30 5 C -1.5826 -0.8364 0.0 0 CFG=1
M  V30 6 C -1.2225 0.8577 0.0 0
M  V30 7 C -0.1704 0.5758 0.0 0
M  V30 8 C -1.0826 -1.7024 0.0 0
M  V30 9 C -2.5608 -0.6284 0.0 0
M  V30 10 C -2.2007 1.0657 0.0 0
M  V30 11 C -3.2299 -1.3716 0.0 0
M  V30 12 C -2.8698 0.3225 0.0 0 CFG=2
M  V30 13 C -4.2081 -1.1637 0.0 0
M  V30 14 C -3.8479 0.5304 0.0 0
M  V30 15 C -4.5171 -0.2126 0.0 0
M  V30 16 C -4.157 1.4815 0.0 0
M  V30 17 C -5.4952 -0.0047 0.0 0
M  V30 18 C -5.1351 1.6894 0.0 0
M  V30 19 C -5.8042 0.9462 0.0 0
M  V30 20 O -6.7824 1.1542 0.0 0
M  V30 END ATOM
M  V30 BEGIN BOND
M  V30 1 2 1 2
M  V30 2 1 3 2
M  V30 3 1 2 4
M  V30 4 1 5 3
M  V30 5 1 3 6
M  V30 6 1 3 7 CFG=1
M  V30 7 1 4 8
M  V30 8 1 5 9
M  V30 9 1 6 10
M  V30 10 2 9 11
M  V30 11 1 12 9
M  V30 12 1 11 13
M  V30 13 1 12 14
M  V30 14 1 13 15
M  V30 15 1 14 16
M  V30 16 1 15 17
M  V30 17 2 16 18
M  V30 18 2 17 19
M  V30 19 1 19 20
M  V30 20 1 5 8 CFG=1
M  V30 21 1 12 10 CFG=1
M  V30 22 2 14 15
M  V30 23 1 18 19
M  V30 END BOND
M  V30 BEGIN COLLECTION
M  V30 MDLV30/STERAC1 ATOMS=(3 3 5 12)
M  V30 END COLLECTION
M  V30 END CTAB
M  END
>  <Molecule Name>


>  <status>
-

>  <cas>
474-86-2

>  <name>
EQUILIN

>  <ID>
1322

>  <Smiles>
C[C@](CC[C@@H]12)([C@@H](CC3)C2=CCc2c1ccc(O)c2)C3=O

$$$$

Actelion Java MolfileCreator 2.0

  0  0  0  0  0  0              0 V3000
M  V30 BEGIN CTAB
M  V30 COUNTS 14 13 0 0 0
M  V30 BEGIN ATOM
M  V30 1 O 6.4952 1.5 0.0 0
M  V30 2 C 6.4952 0.0 0.0 0
M  V30 3 N 5.1961 -0.75 0.0 0
M  V30 4 C 7.7942 -0.75 0.0 0 CFG=1
M  V30 5 C 3.8971 0.0 0.0 0
M  V30 6 O 7.7942 -2.25 0.0 0
M  V30 7 C 9.0932 0.0 0.0 0
M  V30 8 C 2.598 -0.75 0.0 0
M  V30 9 C 10.3923 -0.75 0.0 0
M  V30 10 C 9.8433 1.299 0.0 0
M  V30 11 C 8.3432 1.299 0.0 0
M  V30 12 C 1.299 0.0 0.0 0
M  V30 13 O 11.6913 0.0 0.0 0
M  V30 14 O 0.0 -0.75 0.0 0
M  V30 END ATOM
M  V30 BEGIN BOND
M  V30 1 2 1 2
M  V30 2 1 2 3
M  V30 3 1 4 2
M  V30 4 1 3 5
M  V30 5 1 4 6 CFG=3
M  V30 6 1 4 7
M  V30 7 1 5 8
M  V30 8 1 7 9
M  V30 9 1 7 10
M  V30 10 1 7 11
M  V30 11 1 8 12
M  V30 12 1 9 13
M  V30 13 1 12 14
M  V30 END BOND
M  V30 BEGIN COLLECTION
M  V30 MDLV30/STERAC1 ATOMS=(1 4)
M  V30 END COLLECTION
M  V30 END CTAB
M  END
>  <Molecule Name>


>  <status>
-

>  <cas>
81-13-0

>  <name>
DEXPANTHENOL

>  <ID>
1323

>  <Smiles>
CC(C)(CO)C(C(NCCCO)=O)O

$$$$

Actelion Java MolfileCreator 2.0

  0  0  0  0  0  0              0 V3000
M  V30 BEGIN CTAB
M  V30 COUNTS 31 33 0 0 0
M  V30 BEGIN ATOM
M  V30 1 P 6.0621 0.0 0.0 0
M  V30 2 O 6.5621 -0.866 0.0 0
M  V30 3 O 5.1961 -0.5 0.0 0
M  V30 4 O 6.9282 0.4999 0.0 0 CHG=-1
M  V30 5 O 5.5621 0.866 0.0 0 CHG=-1
M  V30 6 C 4.3301 0.0 0.0 0
M  V30 7 C 3.4641 -0.5 0.0 0 CFG=1
M  V30 8 O 3.4641 -1.5 0.0 0
M  V30 9 C 2.598 0.0 0.0 0 CFG=1
M  V30 10 O 2.598 1.0 0.0 0
M  V30 11 C 1.732 -0.5 0.0 0 CFG=1
M  V30 12 O 1.732 -1.5 0.0 0
M  V30 13 C 0.866 0.0 0.0 0
M  V30 14 N 0.0 -0.5 0.0 0
M  V30 15 C -0.866 0.0 0.0 0
M  V30 16 C 0.0 -1.4999 0.0 0
M  V30 17 N -0.866 1.0 0.0 0
M  V30 18 C -1.732 -0.4999 0.0 0
M  V30 19 C -0.866 -1.9999 0.0 0
M  V30 20 C 0.866 -1.9999 0.0 0
M  V30 21 C -1.732 1.5 0.0 0
M  V30 22 N -1.732 -1.4999 0.0 0
M  V30 23 C -2.598 0.0 0.0 0
M  V30 24 C -0.866 -2.9999 0.0 0
M  V30 25 C 0.866 -3.0 0.0 0
M  V30 26 O -1.732 2.5 0.0 0
M  V30 27 N -2.598 1.0 0.0 0
M  V30 28 O -3.4641 -0.4999 0.0 0
M  V30 29 C 0.0 -3.4999 0.0 0
M  V30 30 C 1.732 -3.5 0.0 0
M  V30 31 C 0.0 -4.4999 0.0 0
M  V30 END ATOM
M  V30 BEGIN BOND
M  V30 1 2 1 2
M  V30 2 1 1 3
M  V30 3 1 1 4
M  V30 4 1 1 5
M  V30 5 1 3 6
M  V30 6 1 7 6
M  V30 7 1 7 8 CFG=1
M  V30 8 1 9 7
M  V30 9 1 9 10 CFG=3
M  V30 10 1 11 9
M  V30 11 1 11 12 CFG=1
M  V30 12 1 11 13
M  V30 13 1 13 14
M  V30 14 1 14 15
M  V30 15 1 14 16
M  V30 16 2 15 17
M  V30 17 1 15 18
M  V30 18 2 16 19
M  V30 19 1 16 20
M  V30 20 1 17 21
M  V30 21 2 18 22
M  V30 22 1 18 23
M  V30 23 1 19 24
M  V30 24 2 20 25
M  V30 25 2 21 26
M  V30 26 1 21 27
M  V30 27 2 23 28
M  V30 28 2 24 29
M  V30 29 1 25 30
M  V30 30 1 29 31
M  V30 31 1 19 22
M  V30 32 1 23 27
M  V30 33 1 25 29
M  V30 END BOND
M  V30 BEGIN COLLECTION
M  V30 MDLV30/STERAC1 ATOMS=(3 7 9 11)
M  V30 END COLLECTION
M  V30 END CTAB
M  END
>  <Molecule Name>


>  <status>
-

>  <cas>
146-17-8

>  <name>
RIBOFLAVIN PHOSPHATE

>  <ID>
1324

>  <Smiles>
Cc(c(C)c1)cc(N2C[C@@H]([C@@H]([C@@H](COP([O-])([O-])=O)O)O)O)c1N=C(C(N1)=O)C2=NC1=O

$$$$
Molecule-1
Actelion Java MolfileCreator 2.0

  0  0  0  0  0  0              0 V3000
M  V30 BEGIN CTAB
M  V30 COUNTS 38 38 0 0 0
M  V30 BEGIN ATOM
M  V30 1 O 19.4855 1.5 0.0 0
M  V30 2 C 19.4855 0.0 0.0 0
M  V30 3 O 20.7846 -0.75 0.0 0
M  V30 4 C 18.1865 -0.75 0.0 0
M  V30 5 C 22.0836 0.0 0.0 0
M  V30 6 C 16.8875 0.0 0.0 0
M  V30 7 C 23.3827 -0.75 0.0 0
M  V30 8 C 15.5884 -0.75 0.0 0
M  V30 9 C 24.6817 0.0 0.0 0
M  V30 10 C 14.2894 0.0 0.0 0
M  V30 11 C 25.9807 -0.75 0.0 0
M  V30 12 C 24.6817 1.5 0.0 0
M  V30 13 C 12.9903 -0.75 0.0 0
M  V30 14 C 27.2798 0.0 0.0 0
M  V30 15 C 11.6913 0.0 0.0 0
M  V30 16 C 28.5788 -0.75 0.0 0
M  V30 17 C 10.3923 -0.75 0.0 0
M  V30 18 C 29.8779 0.0 0.0 0
M  V30 19 C 9.0932 0.0 0.0 0
M  V30 20 C 31.1769 -0.75 0.0 0
M  V30 21 C 29.8779 1.5 0.0 0
M  V30 22 C 7.7942 -0.75 0.0 0
M  V30 23 C 32.4759 0.0 0.0 0
M  V30 24 C 6.4951 0.0 0.0 0
M  V30 25 C 33.775 -0.75 0.0 0
M  V30 26 C 5.1961 -0.75 0.0 0
M  V30 27 C 33.775 -2.25 0.0 0
M  V30 28 C 35.074 0.0 0.0 0
M  V30 29 C 3.8971 0.0 0.0 0
M  V30 30 C 35.074 -3.0 0.0 0
M  V30 31 C 32.4759 -3.0 0.0 0
M  V30 32 C 36.3731 -0.75 0.0 0
M  V30 33 C 35.824 1.299 0.0 0
M  V30 34 C 34.324 1.299 0.0 0
M  V30 35 C 2.598 -0.75 0.0 0
M  V30 36 C 36.3731 -2.25 0.0 0
M  V30 37 C 1.299 0.0 0.0 0
M  V30 38 C 0.0 -0.75 0.0 0
M  V30 END ATOM
M  V30 BEGIN BOND
M  V30 1 2 1 2
M  V30 2 1 2 3
M  V30 3 1 2 4
M  V30 4 1 3 5
M  V30 5 1 4 6
M  V30 6 1 5 7
M  V30 7 1 6 8
M  V30 8 2 7 9
M  V30 9 1 8 10
M  V30 10 1 9 11
M  V30 11 1 9 12
M  V30 12 1 10 13
M  V30 13 2 11 14
M  V30 14 1 13 15
M  V30 15 1 14 16
M  V30 16 1 15 17
M  V30 17 2 16 18
M  V30 18 1 17 19
M  V30 19 1 18 20
M  V30 20 1 18 21
M  V30 21 1 19 22
M  V30 22 2 20 23
M  V30 23 1 22 24
M  V30 24 1 23 25
M  V30 25 1 24 26
M  V30 26 2 25 27
M  V30 27 1 25 28
M  V30 28 1 26 29
M  V30 29 1 27 30
M  V30 30 1 27 31
M  V30 31 1 28 32
M  V30 32 1 28 33
M  V30 33 1 28 34
M  V30 34 1 29 35
M  V30 35 1 30 36
M  V30 36 1 35 37
M  V30 37 1 37 38
M  V30 38 1 32 36
M  V30 END BOND
M  V30 END CTAB
M  END
>  <Molecule Name>
Molecule-1

>  <status>
-

>  <cas>
79-81-2

>  <name>
VITAMIN A PALMITATE

>  <ID>
1325

>  <Smiles>
CCCCCCCCCCCCCCCC(OC/C=C(\C)/C=C/C=C(\C)/C=C/C1=C(C)CCCC1(C)C)=O

$$$$

Actelion Java MolfileCreator 2.0

  0  0  0  0  0  0              0 V3000
M  V30 BEGIN CTAB
M  V30 COUNTS 14 15 0 0 0
M  V30 BEGIN ATOM
M  V30 1 N 1.299 1.5 0.0 0
M  V30 2 C 1.299 0.0 0.0 0
M  V30 3 C 2.598 2.2499 0.0 0
M  V30 4 C 0.0 -0.75 0.0 0
M  V30 5 C 2.598 -0.75 0.0 0
M  V30 6 C 3.8971 1.4999 0.0 0
M  V30 7 N -1.299 0.0 0.0 0
M  V30 8 C 0.0 -2.25 0.0 0
M  V30 9 C 3.8971 0.0 0.0 0
M  V30 10 C 5.1961 2.2499 0.0 0
M  V30 11 C -2.598 -0.7499 0.0 0
M  V30 12 C -1.299 -2.9999 0.0 0
M  V30 13 C -2.598 -2.2499 0.0 0
M  V30 14 C -3.8971 -2.9999 0.0 0
M  V30 END ATOM
M  V30 BEGIN BOND
M  V30 1 2 1 2
M  V30 2 1 1 3
M  V30 3 1 2 4
M  V30 4 1 2 5
M  V30 5 2 3 6
M  V30 6 2 4 7
M  V30 7 1 4 8
M  V30 8 2 5 9
M  V30 9 1 6 10
M  V30 10 1 7 11
M  V30 11 2 8 12
M  V30 12 2 11 13
M  V30 13 1 13 14
M  V30 14 1 6 9
M  V30 15 1 12 13
M  V30 END BOND
M  V30 END CTAB
M  END
>  <Molecule Name>


>  <status>
DISCONTINUED

>  <cas>
1762-34-1

>  <name>
ABAMETAPIR

>  <ID>
1326

>  <Smiles>
Cc(cc1)cnc1-c1ncc(C)cc1

$$$$

Actelion Java MolfileCreator 2.0

  0  0  0  0  0  0              0 V3000
M  V30 BEGIN CTAB
M  V30 COUNTS 35 39 0 0 0
M  V30 BEGIN ATOM
M  V30 1 O 15.0737 -9.8486 0.0 0
M  V30 2 C 14.0671 -8.7306 0.0 0
M  V30 3 C 12.5956 -9.0434 0.0 0
M  V30 4 C 14.532 -7.2999 0.0 0
M  V30 5 C 11.589 -7.9254 0.0 0
M  V30 6 C 13.5253 -6.1819 0.0 0
M  V30 7 C 12.0538 -6.4947 0.0 0 CFG=1
M  V30 8 C 10.1175 -8.2382 0.0 0
M  V30 9 C 11.0472 -5.3767 0.0 0 CFG=2
M  V30 10 C 12.5187 -5.0639 0.0 0
M  V30 11 C 9.1108 -7.1202 0.0 0
M  V30 12 C 11.5121 -3.946 0.0 0 CFG=2
M  V30 13 C 9.5757 -5.6895 0.0 0 CFG=2
M  V30 14 O 12.9836 -3.6332 0.0 0
M  V30 15 C 10.5055 -2.828 0.0 0
M  V30 16 C 8.5691 -4.5715 0.0 0 CFG=2
M  V30 17 C 9.034 -3.1408 0.0 0 CFG=2
M  V30 18 C 7.0647 -4.5715 0.0 0
M  V30 19 C 7.8169 -2.2565 0.0 0 CFG=2
M  V30 20 C 9.4672 -1.7301 0.0 0
M  V30 21 C 6.5998 -3.1408 0.0 0
M  V30 22 O 8.9164 -1.4518 0.0 0
M  V30 23 C 7.8169 -0.7521 0.0 0
M  V30 24 O 9.1197 0.0 0.0 0
M  V30 25 C 6.5141 0.0 0.0 0
M  V30 26 O 5.2113 -0.7521 0.0 0
M  V30 27 C 3.9084 0.0 0.0 0
M  V30 28 O 3.9084 1.5043 0.0 0
M  V30 29 C 2.6056 -0.7521 0.0 0
M  V30 30 C 1.3028 0.0 0.0 0
M  V30 31 C 0.0 -0.7521 0.0 0
M  V30 32 C -1.3743 -0.1403 0.0 0
M  V30 33 C -0.1572 -2.2483 0.0 0
M  V30 34 C -2.3809 -1.2582 0.0 0
M  V30 35 C -1.6287 -2.561 0.0 0
M  V30 END ATOM
M  V30 BEGIN BOND
M  V30 1 2 1 2
M  V30 2 1 2 3
M  V30 3 1 2 4
M  V30 4 2 3 5
M  V30 5 1 4 6
M  V30 6 1 7 5
M  V30 7 1 5 8
M  V30 8 1 9 7
M  V30 9 1 7 10 CFG=1
M  V30 10 1 8 11
M  V30 11 1 9 12 CFG=1
M  V30 12 1 13 9
M  V30 13 1 12 14 CFG=1
M  V30 14 1 12 15
M  V30 15 1 16 13
M  V30 16 1 17 15
M  V30 17 1 16 18 CFG=1
M  V30 18 1 19 17
M  V30 19 1 17 20 CFG=1
M  V30 20 1 18 21
M  V30 21 1 19 22 CFG=3
M  V30 22 1 19 23
M  V30 23 2 23 24
M  V30 24 1 23 25
M  V30 25 1 25 26
M  V30 26 1 26 27
M  V30 27 2 27 28
M  V30 28 1 27 29
M  V30 29 1 29 30
M  V30 30 1 30 31
M  V30 31 1 31 32
M  V30 32 1 31 33
M  V30 33 1 32 34
M  V30 34 1 33 35
M  V30 35 1 6 7
M  V30 36 1 13 11 CFG=3
M  V30 37 1 16 17
M  V30 38 1 19 21
M  V30 39 1 34 35
M  V30 END BOND
M  V30 BEGIN COLLECTION
M  V30 MDLV30/STERAC1 ATOMS=(7 7 9 12 13 16 17 19)
M  V30 END COLLECTION
M  V30 END CTAB
M  END
>  <Molecule Name>


>  <status>
DISCONTINUED

>  <cas>
508-99-6

>  <name>
HYDROCORTISONE CYPIONATE

>  <ID>
1327

>  <Smiles>
C[C@@](C[C@H]1O)([C@H](CC2)[C@@H](CC3)[C@@H]1[C@](C)(CC1)C3=CC1=O)[C@@]2(C(COC(CCC1CCCC1)=O)=O)O

$$$$

Actelion Java MolfileCreator 2.0

  0  0  0  0  0  0              0 V3000
M  V30 BEGIN CTAB
M  V30 COUNTS 35 38 0 0 0
M  V30 BEGIN ATOM
M  V30 1 O -3.541 -1.513 0.0 0
M  V30 2 C -2.0895 -1.1241 0.0 0
M  V30 3 C -1.7006 0.3273 0.0 0
M  V30 4 C -1.0269 -2.1867 0.0 0
M  V30 5 C -0.249 0.7162 0.0 0
M  V30 6 C 0.4245 -1.7978 0.0 0
M  V30 7 C 0.8134 -0.3462 0.0 0 CFG=1
M  V30 8 C 0.1398 2.1677 0.0 0
M  V30 9 C 2.2649 0.0426 0.0 0 CFG=2
M  V30 10 C 1.876 -1.4088 0.0 0
M  V30 11 C 1.5913 2.5567 0.0 0
M  V30 12 C 3.3275 -1.0199 0.0 0 CFG=2
M  V30 13 C 2.6539 1.4941 0.0 0 CFG=2
M  V30 14 O 2.9386 -2.4714 0.0 0
M  V30 15 C 4.7049 -0.61 0.0 0
M  V30 16 C 4.1054 1.883 0.0 0 CFG=2
M  V30 17 C 5.168 0.8204 0.0 0 CFG=2
M  V30 18 C 4.7876 3.2219 0.0 0
M  V30 19 C 6.5069 1.5027 0.0 0 CFG=2
M  V30 20 C 6.2514 -0.3365 0.0 0
M  V30 21 C 6.2718 2.9869 0.0 0
M  V30 22 O 7.8458 0.8204 0.0 0
M  V30 23 C 6.6291 0.1144 0.0 0
M  V30 24 C 9.1061 1.6389 0.0 0
M  V30 25 O 7.8083 -0.7513 0.0 0
M  V30 26 C 5.3538 -0.7932 0.0 0
M  V30 27 O 9.0274 3.1395 0.0 0
M  V30 28 C 10.445 0.9567 0.0 0
M  V30 29 O 5.2055 -2.254 0.0 0
M  V30 30 C 11.7053 1.7751 0.0 0
M  V30 31 C 6.5069 -3.0054 0.0 0
M  V30 32 C 13.0442 1.0929 0.0 0
M  V30 33 O 6.5069 -4.5081 0.0 0
M  V30 34 C 7.8083 -2.254 0.0 0
M  V30 35 C 9.1096 -3.0054 0.0 0
M  V30 END ATOM
M  V30 BEGIN BOND
M  V30 1 2 1 2
M  V30 2 1 2 3
M  V30 3 1 2 4
M  V30 4 2 3 5
M  V30 5 1 4 6
M  V30 6 1 7 5
M  V30 7 1 5 8
M  V30 8 1 9 7
M  V30 9 1 7 10 CFG=1
M  V30 10 1 8 11
M  V30 11 1 9 12 CFG=1
M  V30 12 1 13 9
M  V30 13 1 12 14 CFG=1
M  V30 14 1 12 15
M  V30 15 1 16 13
M  V30 16 1 17 15
M  V30 17 1 16 18 CFG=1
M  V30 18 1 19 17
M  V30 19 1 17 20 CFG=1
M  V30 20 1 18 21
M  V30 21 1 19 22
M  V30 22 1 19 23 CFG=1
M  V30 23 1 22 24
M  V30 24 2 23 25
M  V30 25 1 23 26
M  V30 26 2 24 27
M  V30 27 1 24 28
M  V30 28 1 26 29
M  V30 29 1 28 30
M  V30 30 1 29 31
M  V30 31 1 30 32
M  V30 32 2 31 33
M  V30 33 1 31 34
M  V30 34 1 34 35
M  V30 35 1 6 7
M  V30 36 1 13 11 CFG=3
M  V30 37 1 16 17
M  V30 38 1 19 21
M  V30 END BOND
M  V30 BEGIN COLLECTION
M  V30 MDLV30/STERAC1 ATOMS=(7 7 9 12 13 16 17 19)
M  V30 END COLLECTION
M  V30 END CTAB
M  END
>  <Molecule Name>


>  <status>
-

>  <cas>
72590-77-3

>  <name>
HYDROCORTISONE PROBUTATE

>  <ID>
1328

>  <Smiles>
CCCC(O[C@@](CC1)([C@](C)(C[C@H]2O)[C@H]1[C@@H](CC1)[C@@H]2[C@](C)(CC2)C1=CC2=O)C(COC(CC)=O)=O)=O

$$$$

Actelion Java MolfileCreator 2.0

  0  0  0  0  0  0              0 V3000
M  V30 BEGIN CTAB
M  V30 COUNTS 13 13 0 0 0
M  V30 BEGIN ATOM
M  V30 1 O 5.1961 -0.75 0.0 0
M  V30 2 C 3.8971 0.0 0.0 0
M  V30 3 O 3.8971 1.5 0.0 0 CHG=-1
M  V30 4 C 2.598 -0.75 0.0 0 CFG=1
M  V30 5 N 2.598 -2.25 0.0 0
M  V30 6 C 1.299 0.0 0.0 0
M  V30 7 C 0.0 -0.75 0.0 0
M  V30 8 C -1.299 0.0 0.0 0
M  V30 9 C 0.0 -2.2499 0.0 0
M  V30 10 C -2.598 -0.7499 0.0 0
M  V30 11 C -1.299 -2.9999 0.0 0
M  V30 12 C -2.598 -2.2499 0.0 0
M  V30 13 O -3.8971 -2.9999 0.0 0
M  V30 END ATOM
M  V30 BEGIN BOND
M  V30 1 2 1 2
M  V30 2 1 2 3
M  V30 3 1 4 2
M  V30 4 1 4 5 CFG=1
M  V30 5 1 4 6
M  V30 6 1 6 7
M  V30 7 2 7 8
M  V30 8 1 7 9
M  V30 9 1 8 10
M  V30 10 2 9 11
M  V30 11 2 10 12
M  V30 12 1 12 13
M  V30 13 1 11 12
M  V30 END BOND
M  V30 BEGIN COLLECTION
M  V30 MDLV30/STERAC1 ATOMS=(1 4)
M  V30 END COLLECTION
M  V30 END CTAB
M  END
>  <Molecule Name>


>  <status>
DISCONTINUED

>  <cas>
60-18-4

>  <name>
TYROSINE

>  <ID>
1329

>  <Smiles>
NC(Cc(cc1)ccc1O)C([O-])=O

$$$$
Molecule-1
Actelion Java MolfileCreator 2.0

  0  0  0  0  0  0              0 V3000
M  V30 BEGIN CTAB
M  V30 COUNTS 21 21 0 0 0
M  V30 BEGIN ATOM
M  V30 1 O 4.3301 0.0 0.0 0
M  V30 2 C 5.1961 -0.5 0.0 0
M  V30 3 O 6.0621 0.0 0.0 0
M  V30 4 C 5.1961 -1.4999 0.0 0
M  V30 5 C 6.9282 -0.5 0.0 0
M  V30 6 C 4.3301 -1.9999 0.0 0
M  V30 7 C 6.0621 -2.0 0.0 0
M  V30 8 C 7.7942 0.0 0.0 0
M  V30 9 O 3.4641 -1.4999 0.0 0
M  V30 10 C 4.3301 -2.9999 0.0 0
M  V30 11 C 6.0621 -3.0 0.0 0
M  V30 12 N 8.6602 -0.5 0.0 0
M  V30 13 C 2.598 -1.9999 0.0 0
M  V30 14 C 5.1961 -3.4999 0.0 0
M  V30 15 C 8.6602 -1.5 0.0 0
M  V30 16 C 9.5262 0.0 0.0 0
M  V30 17 C 1.732 -1.4999 0.0 0
M  V30 18 N 5.1961 -4.4999 0.0 0
M  V30 19 C 7.7942 -2.0 0.0 0
M  V30 20 C 10.3923 -0.5 0.0 0
M  V30 21 C 0.866 -2.0 0.0 0
M  V30 END ATOM
M  V30 BEGIN BOND
M  V30 1 2 1 2
M  V30 2 1 2 3
M  V30 3 1 2 4
M  V30 4 1 3 5
M  V30 5 2 4 6
M  V30 6 1 4 7
M  V30 7 1 5 8
M  V30 8 1 6 9
M  V30 9 1 6 10
M  V30 10 2 7 11
M  V30 11 1 8 12
M  V30 12 1 9 13
M  V30 13 2 10 14
M  V30 14 1 12 15
M  V30 15 1 12 16
M  V30 16 1 13 17
M  V30 17 1 14 18
M  V30 18 1 15 19
M  V30 19 1 16 20
M  V30 20 1 17 21
M  V30 21 1 11 14
M  V30 END BOND
M  V30 END CTAB
M  END
>  <Molecule Name>
Molecule-1

>  <status>
DISCONTINUED

>  <cas>
86-43-1

>  <name>
PROPOXYCAINE

>  <ID>
1330

>  <Smiles>
CCCOc(cc(cc1)N)c1C(OCCN(CC)CC)=O

$$$$

Actelion Java MolfileCreator 2.0

  0  0  0  0  0  0              0 V3000
M  V30 BEGIN CTAB
M  V30 COUNTS 24 26 0 0 0
M  V30 BEGIN ATOM
M  V30 1 O 11.8188 -0.2864 0.0 0
M  V30 2 C 10.3923 -0.75 0.0 0
M  V30 3 C 12.7005 -1.5 0.0 0
M  V30 4 C 10.3923 -2.25 0.0 0
M  V30 5 C 9.0932 0.0 0.0 0
M  V30 6 O 11.8188 -2.7135 0.0 0
M  V30 7 C 9.0932 -3.0 0.0 0
M  V30 8 C 7.7942 -0.75 0.0 0
M  V30 9 C 7.7942 -2.2499 0.0 0
M  V30 10 C 6.4951 0.0 0.0 0
M  V30 11 C 5.1961 -0.75 0.0 0 CFG=1
M  V30 12 N 3.8971 0.0 0.0 0
M  V30 13 C 5.1961 -2.25 0.0 0
M  V30 14 C 2.598 -0.75 0.0 0
M  V30 15 C 1.299 0.0 0.0 0 CFG=2
M  V30 16 O 1.299 1.5 0.0 0
M  V30 17 C 0.0 -0.75 0.0 0
M  V30 18 C -1.299 0.0 0.0 0
M  V30 19 C 0.0 -2.2499 0.0 0
M  V30 20 C -2.598 -0.7499 0.0 0
M  V30 21 C -1.299 -2.9999 0.0 0
M  V30 22 O -3.8971 0.0 0.0 0
M  V30 23 C -2.598 -2.2499 0.0 0
M  V30 24 O -3.8971 -2.9999 0.0 0
M  V30 END ATOM
M  V30 BEGIN BOND
M  V30 1 1 1 2
M  V30 2 1 1 3
M  V30 3 2 2 4
M  V30 4 1 2 5
M  V30 5 1 3 6
M  V30 6 1 4 7
M  V30 7 2 5 8
M  V30 8 2 7 9
M  V30 9 1 8 10
M  V30 10 1 11 10
M  V30 11 1 11 12 CFG=3
M  V30 12 1 11 13
M  V30 13 1 12 14
M  V30 14 1 15 14
M  V30 15 1 15 16 CFG=1
M  V30 16 1 15 17
M  V30 17 2 17 18
M  V30 18 1 17 19
M  V30 19 1 18 20
M  V30 20 2 19 21
M  V30 21 1 20 22
M  V30 22 2 20 23
M  V30 23 1 23 24
M  V30 24 1 4 6
M  V30 25 1 8 9
M  V30 26 1 21 23
M  V30 END BOND
M  V30 BEGIN COLLECTION
M  V30 MDLV30/STERAC1 ATOMS=(2 11 15)
M  V30 END COLLECTION
M  V30 END CTAB
M  END
>  <Molecule Name>


>  <status>
DISCONTINUED

>  <cas>
912804-63-8

>  <name>
PROTOKYLOL

>  <ID>
1331

>  <Smiles>
C[C@@H](Cc(cc1)cc2c1OCO2)NC[C@@H](c(cc1)cc(O)c1O)O

$$$$
_c001
Actelion Java MolfileCreator 2.0

  0  0  0  0  0  0              0 V3000
M  V30 BEGIN CTAB
M  V30 COUNTS 10 10 0 0 0
M  V30 BEGIN ATOM
M  V30 1 N 3.8971 0.0 0.0 0
M  V30 2 C 2.598 -0.75 0.0 0 CFG=2
M  V30 3 C 1.299 0.0 0.0 0
M  V30 4 C 2.598 -2.25 0.0 0
M  V30 5 C 0.0 -0.75 0.0 0
M  V30 6 C -1.299 0.0 0.0 0
M  V30 7 C 0.0 -2.25 0.0 0
M  V30 8 C -2.598 -0.7499 0.0 0
M  V30 9 C -1.299 -2.9999 0.0 0
M  V30 10 C -2.598 -2.2499 0.0 0
M  V30 END ATOM
M  V30 BEGIN BOND
M  V30 1 1 2 1 CFG=1
M  V30 2 1 2 3
M  V30 3 1 2 4
M  V30 4 1 3 5
M  V30 5 2 5 6
M  V30 6 1 5 7
M  V30 7 1 6 8
M  V30 8 2 7 9
M  V30 9 2 8 10
M  V30 10 1 9 10
M  V30 END BOND
M  V30 BEGIN COLLECTION
M  V30 MDLV30/STERAC1 ATOMS=(1 2)
M  V30 END COLLECTION
M  V30 END CTAB
M  END
>  <Molecule Name>
_c001

>  <status>
-

>  <cas>
51-64-9

>  <name>
DEXTROAMPHETAMINE

>  <ID>
1332

>  <Smiles>
CC(Cc1ccccc1)N

$$$$

Actelion Java MolfileCreator 2.0

  0  0  0  0  0  0              0 V3000
M  V30 BEGIN CTAB
M  V30 COUNTS 26 30 0 0 0
M  V30 BEGIN ATOM
M  V30 1 S 6.1856 0.8472 0.0 0 CHG=1 CFG=2
M  V30 2 C 4.7183 1.1591 0.0 0 CFG=1
M  V30 3 C 6.3424 -0.6445 0.0 0
M  V30 4 C 6.9356 2.1463 0.0 0
M  V30 5 C 3.9683 -0.1398 0.0 0 CFG=2
M  V30 6 C 4.5616 2.6509 0.0 0
M  V30 7 C 4.972 -1.2546 0.0 0 CFG=2
M  V30 8 C 5.9319 3.261 0.0 0
M  V30 9 N 2.598 -0.75 0.0 0
M  V30 10 N 4.222 -2.5536 0.0 0
M  V30 11 C 2.7548 -2.2417 0.0 0
M  V30 12 C 1.299 0.0 0.0 0
M  V30 13 C 4.8321 -3.9239 0.0 0
M  V30 14 O 1.6401 -3.2454 0.0 0
M  V30 15 C 0.0 -0.75 0.0 0
M  V30 16 C 6.3239 -4.0807 0.0 0
M  V30 17 C -1.299 0.0 0.0 0
M  V30 18 C 0.0 -2.2499 0.0 0
M  V30 19 C 6.934 -5.451 0.0 0
M  V30 20 C 7.2056 -2.8672 0.0 0
M  V30 21 C -2.598 -0.7499 0.0 0
M  V30 22 C -1.299 -2.9999 0.0 0
M  V30 23 C 8.4258 -5.6078 0.0 0
M  V30 24 C 8.6974 -3.024 0.0 0
M  V30 25 C -2.598 -2.2499 0.0 0
M  V30 26 C 9.3075 -4.3943 0.0 0
M  V30 END ATOM
M  V30 BEGIN BOND
M  V30 1 1 2 1
M  V30 2 1 1 3 CFG=1
M  V30 3 1 1 4
M  V30 4 1 5 2
M  V30 5 1 2 6 CFG=1
M  V30 6 1 7 3
M  V30 7 1 4 8
M  V30 8 1 5 9 CFG=3
M  V30 9 1 7 10 CFG=1
M  V30 10 1 9 11
M  V30 11 1 9 12
M  V30 12 1 10 13
M  V30 13 2 11 14
M  V30 14 1 12 15
M  V30 15 1 13 16
M  V30 16 2 15 17
M  V30 17 1 15 18
M  V30 18 2 16 19
M  V30 19 1 16 20
M  V30 20 1 17 21
M  V30 21 2 18 22
M  V30 22 1 19 23
M  V30 23 2 20 24
M  V30 24 2 21 25
M  V30 25 2 23 26
M  V30 26 1 5 7
M  V30 27 1 6 8
M  V30 28 1 10 11
M  V30 29 1 22 25
M  V30 30 1 24 26
M  V30 END BOND
M  V30 BEGIN COLLECTION
M  V30 MDLV30/STERAC1 ATOMS=(4 1 2 5 7)
M  V30 END COLLECTION
M  V30 END CTAB
M  END
>  <Molecule Name>


>  <status>
DISCONTINUED

>  <cas>
7187-66-8

>  <name>
TRIMETHAPHAN

>  <ID>
1333

>  <Smiles>
O=C1N(Cc2ccccc2)[C@@H]2[C@@H](CCC3)[S@+]3C[C@H]2N1Cc1ccccc1

$$$$

Actelion Java MolfileCreator 2.0

  0  0  0  0  0  0              0 V3000
M  V30 BEGIN CTAB
M  V30 COUNTS 29 32 0 0 0
M  V30 BEGIN ATOM
M  V30 1 O 13.7106 1.1542 0.0 0
M  V30 2 C 12.7324 0.9462 0.0 0
M  V30 3 C 12.4234 -0.0047 0.0 0
M  V30 4 C 12.0633 1.6894 0.0 0
M  V30 5 C 11.4453 -0.2126 0.0 0
M  V30 6 C 11.0852 1.4815 0.0 0
M  V30 7 C 10.7761 0.5304 0.0 0 CFG=1
M  V30 8 C 11.1363 -1.1637 0.0 0
M  V30 9 C 9.798 0.3225 0.0 0 CFG=1
M  V30 10 C 10.107 1.2736 0.0 0
M  V30 11 C 10.1581 -1.3716 0.0 0
M  V30 12 C 9.489 -0.6284 0.0 0 CFG=2
M  V30 13 C 9.1289 1.0657 0.0 0
M  V30 14 C 8.5108 -0.8364 0.0 0 CFG=2
M  V30 15 C 8.1507 0.8577 0.0 0
M  V30 16 C 7.8417 -0.0932 0.0 0 CFG=1
M  V30 17 C 8.0108 -1.7024 0.0 0
M  V30 18 C 6.9282 -0.5 0.0 0 CFG=1
M  V30 19 C 7.0986 0.5758 0.0 0
M  V30 20 C 7.0327 -1.4945 0.0 0
M  V30 21 O 6.0621 0.0 0.0 0
M  V30 22 C 5.1961 -0.5 0.0 0
M  V30 23 O 5.1961 -1.4999 0.0 0
M  V30 24 C 4.3301 0.0 0.0 0
M  V30 25 C 3.4641 -0.5 0.0 0
M  V30 26 C 2.598 0.0 0.0 0
M  V30 27 C 1.732 -0.5 0.0 0
M  V30 28 C 0.866 0.0 0.0 0
M  V30 29 C 0.0 -0.5 0.0 0
M  V30 END ATOM
M  V30 BEGIN BOND
M  V30 1 2 1 2
M  V30 2 1 2 3
M  V30 3 1 2 4
M  V30 4 2 3 5
M  V30 5 1 4 6
M  V30 6 1 7 5
M  V30 7 1 5 8
M  V30 8 1 9 7
M  V30 9 1 7 10 CFG=1
M  V30 10 1 8 11
M  V30 11 1 12 9
M  V30 12 1 9 13 CFG=1
M  V30 13 1 14 12
M  V30 14 1 13 15
M  V30 15 1 16 14
M  V30 16 1 14 17 CFG=1
M  V30 17 1 18 16
M  V30 18 1 16 19 CFG=1
M  V30 19 1 17 20
M  V30 20 1 18 21 CFG=1
M  V30 21 1 21 22
M  V30 22 2 22 23
M  V30 23 1 22 24
M  V30 24 1 24 25
M  V30 25 1 25 26
M  V30 26 1 26 27
M  V30 27 1 27 28
M  V30 28 1 28 29
M  V30 29 1 6 7
M  V30 30 1 12 11 CFG=3
M  V30 31 1 15 16
M  V30 32 1 18 20
M  V30 END BOND
M  V30 BEGIN COLLECTION
M  V30 MDLV30/STERAC1 ATOMS=(6 7 9 12 14 16 18)
M  V30 END COLLECTION
M  V30 END CTAB
M  END
>  <Molecule Name>


>  <status>
-

>  <cas>
315-37-7

>  <name>
TESTOSTERONE ENANTHATE

>  <ID>
1334

>  <Smiles>
CCCCCCC(O[C@H](CC1)[C@](C)(CC2)[C@H]1[C@@H](CC1)[C@@H]2[C@](C)(CC2)C1=CC2=O)=O

$$$$

Actelion Java MolfileCreator 2.0

  0  0  0  0  0  0              0 V3000
M  V30 BEGIN CTAB
M  V30 COUNTS 30 34 0 0 0
M  V30 BEGIN ATOM
M  V30 1 O 9.4331 10.0512 0.0 0
M  V30 2 C 8.9696 8.6247 0.0 0
M  V30 3 C 9.9733 7.5099 0.0 0
M  V30 4 C 7.5023 8.3128 0.0 0
M  V30 5 C 9.5097 6.0834 0.0 0
M  V30 6 C 7.0388 6.8862 0.0 0
M  V30 7 C 8.0425 5.7715 0.0 0 CFG=1
M  V30 8 C 10.5134 4.9686 0.0 0
M  V30 9 C 7.579 4.3449 0.0 0 CFG=1
M  V30 10 C 6.5753 5.4596 0.0 0
M  V30 11 C 10.0499 3.5421 0.0 0
M  V30 12 C 8.5827 3.2302 0.0 0 CFG=2
M  V30 13 C 6.1118 4.033 0.0 0
M  V30 14 C 8.1192 1.8036 0.0 0 CFG=2
M  V30 15 C 5.6482 2.6065 0.0 0
M  V30 16 C 6.6519 1.4917 0.0 0 CFG=1
M  V30 17 C 8.8692 0.5046 0.0 0
M  V30 18 C 6.4951 0.0 0.0 0 CFG=1
M  V30 19 C 5.2253 1.0282 0.0 0
M  V30 20 C 7.8655 -0.6101 0.0 0
M  V30 21 O 5.1961 -0.75 0.0 0
M  V30 22 C 3.8971 0.0 0.0 0
M  V30 23 O 3.8971 1.5 0.0 0
M  V30 24 C 2.598 -0.75 0.0 0
M  V30 25 C 1.299 0.0 0.0 0
M  V30 26 C 0.0 -0.75 0.0 0
M  V30 27 C -1.3703 -0.1398 0.0 0
M  V30 28 C -0.1567 -2.2417 0.0 0
M  V30 29 C -2.374 -1.2546 0.0 0
M  V30 30 C -1.624 -2.5536 0.0 0
M  V30 END ATOM
M  V30 BEGIN BOND
M  V30 1 2 1 2
M  V30 2 1 2 3
M  V30 3 1 2 4
M  V30 4 2 3 5
M  V30 5 1 4 6
M  V30 6 1 7 5
M  V30 7 1 5 8
M  V30 8 1 9 7
M  V30 9 1 7 10 CFG=1
M  V30 10 1 8 11
M  V30 11 1 12 9
M  V30 12 1 9 13 CFG=1
M  V30 13 1 14 12
M  V30 14 1 13 15
M  V30 15 1 16 14
M  V30 16 1 14 17 CFG=1
M  V30 17 1 18 16
M  V30 18 1 16 19 CFG=1
M  V30 19 1 17 20
M  V30 20 1 18 21 CFG=1
M  V30 21 1 21 22
M  V30 22 2 22 23
M  V30 23 1 22 24
M  V30 24 1 24 25
M  V30 25 1 25 26
M  V30 26 1 26 27
M  V30 27 1 26 28
M  V30 28 1 27 29
M  V30 29 1 28 30
M  V30 30 1 6 7
M  V30 31 1 12 11 CFG=3
M  V30 32 1 15 16
M  V30 33 1 18 20
M  V30 34 1 29 30
M  V30 END BOND
M  V30 BEGIN COLLECTION
M  V30 MDLV30/STERAC1 ATOMS=(6 7 9 12 14 16 18)
M  V30 END COLLECTION
M  V30 END CTAB
M  END
>  <Molecule Name>


>  <status>
-

>  <cas>
58-20-8

>  <name>
TESTOSTERONE CYPIONATE

>  <ID>
1335

>  <Smiles>
C[C@@](CC1)([C@H](CC2)[C@@H](CC3)[C@@H]1[C@](C)(CC1)C3=CC1=O)[C@@H]2OC(CCC1CCCC1)=O

$$$$
Molecule-1
Actelion Java MolfileCreator 2.0

  0  0  0  0  0  0              0 V3000
M  V30 BEGIN CTAB
M  V30 COUNTS 38 43 0 0 0
M  V30 BEGIN ATOM
M  V30 1 N 10.3923 -0.75 0.0 0 CHG=1
M  V30 2 C 11.6913 0.0 0.0 0
M  V30 3 C 9.0932 0.0 0.0 0
M  V30 4 C 9.6423 -2.049 0.0 0
M  V30 5 C 11.1423 -2.049 0.0 0
M  V30 6 C 13.0616 -0.6101 0.0 0
M  V30 7 C 11.8481 1.4917 0.0 0
M  V30 8 C 7.7942 -0.75 0.0 0
M  V30 9 C 14.0653 0.5046 0.0 0
M  V30 10 C 13.5252 -2.0366 0.0 0
M  V30 11 C 13.3153 1.8036 0.0 0
M  V30 12 C 10.8444 2.6065 0.0 0
M  V30 13 C 6.4952 0.0 0.0 0
M  V30 14 C 15.5326 0.1927 0.0 0
M  V30 15 C 14.9924 -2.3485 0.0 0
M  V30 16 C 13.7789 3.2302 0.0 0
M  V30 17 C 11.3079 4.033 0.0 0
M  V30 18 C 5.1961 -0.75 0.0 0
M  V30 19 C 15.9961 -1.2338 0.0 0
M  V30 20 C 12.7752 4.3449 0.0 0
M  V30 21 C 3.8971 0.0 0.0 0
M  V30 22 C 2.598 -0.75 0.0 0
M  V30 23 N 1.299 0.0 0.0 0 CHG=1
M  V30 24 C 0.0 -0.75 0.0 0
M  V30 25 C 2.049 1.299 0.0 0
M  V30 26 C 0.549 1.299 0.0 0
M  V30 27 C -1.3703 -0.1398 0.0 0
M  V30 28 C -0.1567 -2.2417 0.0 0
M  V30 29 C -2.374 -1.2546 0.0 0
M  V30 30 C -1.8338 1.2866 0.0 0
M  V30 31 C -1.624 -2.5536 0.0 0
M  V30 32 C 0.8469 -3.3565 0.0 0
M  V30 33 C -3.8412 -0.9427 0.0 0
M  V30 34 C -3.301 1.5985 0.0 0
M  V30 35 C -2.0875 -3.9802 0.0 0
M  V30 36 C 0.3833 -4.783 0.0 0
M  V30 37 C -4.3047 0.4838 0.0 0
M  V30 38 C -1.0838 -5.0949 0.0 0
M  V30 END ATOM
M  V30 BEGIN BOND
M  V30 1 1 1 2
M  V30 2 1 1 3
M  V30 3 1 1 4
M  V30 4 1 1 5
M  V30 5 1 2 6
M  V30 6 1 2 7
M  V30 7 1 3 8
M  V30 8 2 6 9
M  V30 9 1 6 10
M  V30 10 2 7 11
M  V30 11 1 7 12
M  V30 12 1 8 13
M  V30 13 1 9 14
M  V30 14 2 10 15
M  V30 15 1 11 16
M  V30 16 2 12 17
M  V30 17 1 13 18
M  V30 18 2 14 19
M  V30 19 2 16 20
M  V30 20 1 18 21
M  V30 21 1 21 22
M  V30 22 1 22 23
M  V30 23 1 23 24
M  V30 24 1 23 25
M  V30 25 1 23 26
M  V30 26 1 24 27
M  V30 27 1 24 28
M  V30 28 2 27 29
M  V30 29 1 27 30
M  V30 30 2 28 31
M  V30 31 1 28 32
M  V30 32 1 29 33
M  V30 33 2 30 34
M  V30 34 1 31 35
M  V30 35 2 32 36
M  V30 36 2 33 37
M  V30 37 2 35 38
M  V30 38 1 9 11
M  V30 39 1 15 19
M  V30 40 1 17 20
M  V30 41 1 29 31
M  V30 42 1 34 37
M  V30 43 1 36 38
M  V30 END BOND
M  V30 END CTAB
M  END
>  <Molecule Name>
Molecule-1

>  <status>
DISCONTINUED

>  <cas>
4844-10-4

>  <name>
HEXAFLUORENIUM

>  <ID>
1336

>  <Smiles>
C[N+](C)(CCCCCC[N+](C)(C)C1c(cccc2)c2-c2c1cccc2)C1c(cccc2)c2-c2c1cccc2

$$$$

Actelion Java MolfileCreator 2.0

  0  0  0  0  0  0              0 V3000
M  V30 BEGIN CTAB
M  V30 COUNTS 33 36 0 0 0
M  V30 BEGIN ATOM
M  V30 1 O -0.7428 9.0986 0.0 0
M  V30 2 C 0.264 7.9804 0.0 0
M  V30 3 C 1.7358 8.2932 0.0 0
M  V30 4 C -0.2009 6.5493 0.0 0
M  V30 5 C 2.7427 7.175 0.0 0
M  V30 6 C 0.8058 5.431 0.0 0
M  V30 7 C 2.2777 5.7439 0.0 0 CFG=2
M  V30 8 C 4.2146 7.4878 0.0 0
M  V30 9 C 3.2846 4.6256 0.0 0 CFG=1
M  V30 10 C 1.8127 4.3128 0.0 0
M  V30 11 C 5.2214 6.3696 0.0 0
M  V30 12 C 2.8196 3.1945 0.0 0 CFG=1
M  V30 13 C 4.7564 4.9385 0.0 0 CFG=1
M  V30 14 O 1.3477 2.8817 0.0 0
M  V30 15 C 3.8264 2.0763 0.0 0
M  V30 16 C 5.7633 3.8202 0.0 0 CFG=1
M  V30 17 C 5.2983 2.3892 0.0 0 CFG=1
M  V30 18 C 7.268 3.8202 0.0 0
M  V30 19 C 6.5157 1.5047 0.0 0 CFG=1
M  V30 20 C 4.8649 0.9782 0.0 0
M  V30 21 C 7.733 2.3892 0.0 0
M  V30 22 O 5.4159 0.6998 0.0 0
M  V30 23 C 6.5157 0.0 0.0 0
M  V30 24 O 7.8188 -0.7523 0.0 0
M  V30 25 C 5.2125 -0.7523 0.0 0
M  V30 26 O 3.9094 0.0 0.0 0
M  V30 27 C 2.6062 -0.7523 0.0 0
M  V30 28 O 2.6062 -2.2571 0.0 0
M  V30 29 C 1.3031 0.0 0.0 0
M  V30 30 C 0.0 -0.7523 0.0 0
M  V30 31 C 0.7523 -2.0555 0.0 0
M  V30 32 C -1.3031 -1.5047 0.0 0
M  V30 33 C -0.7523 0.5507 0.0 0
M  V30 END ATOM
M  V30 BEGIN BOND
M  V30 1 2 1 2
M  V30 2 1 2 3
M  V30 3 1 2 4
M  V30 4 2 3 5
M  V30 5 2 4 6
M  V30 6 1 7 5
M  V30 7 1 5 8
M  V30 8 1 9 7
M  V30 9 1 7 10 CFG=3
M  V30 10 1 8 11
M  V30 11 1 9 12 CFG=3
M  V30 12 1 13 9
M  V30 13 1 12 14 CFG=3
M  V30 14 1 12 15
M  V30 15 1 16 13
M  V30 16 1 17 15
M  V30 17 1 16 18 CFG=3
M  V30 18 1 19 17
M  V30 19 1 17 20 CFG=3
M  V30 20 1 18 21
M  V30 21 1 19 22 CFG=1
M  V30 22 1 19 23
M  V30 23 2 23 24
M  V30 24 1 23 25
M  V30 25 1 25 26
M  V30 26 1 26 27
M  V30 27 2 27 28
M  V30 28 1 27 29
M  V30 29 1 29 30
M  V30 30 1 30 31
M  V30 31 1 30 32
M  V30 32 1 30 33
M  V30 33 1 6 7
M  V30 34 1 13 11 CFG=1
M  V30 35 1 16 17
M  V30 36 1 19 21
M  V30 END BOND
M  V30 BEGIN COLLECTION
M  V30 MDLV30/STERAC1 ATOMS=(7 7 9 12 13 16 17 19)
M  V30 END COLLECTION
M  V30 END CTAB
M  END
>  <Molecule Name>


>  <status>
DISCONTINUED

>  <cas>
7681-14-3

>  <name>
PREDNISOLONE TEBUTATE

>  <ID>
1337

>  <Smiles>
CC(C)(C)CC(OCC([C@@](CC1)([C@@](C)(C[C@@H]2O)[C@@H]1[C@H](CC1)[C@H]2[C@@](C)(C=C2)C1=CC2=O)O)=O)=O

$$$$

Actelion Java MolfileCreator 2.0

  0  0  0  0  0  0              0 V3000
M  V30 BEGIN CTAB
M  V30 COUNTS 23 25 0 0 0
M  V30 BEGIN ATOM
M  V30 1 O 3.9413 0.0 0.0 0
M  V30 2 C 2.6275 -0.7585 0.0 0 CFG=2
M  V30 3 C 2.6275 -2.2755 0.0 0
M  V30 4 C 3.9413 -1.517 0.0 0
M  V30 5 C 1.3137 0.0 0.0 0
M  V30 6 C 1.3137 -3.034 0.0 0
M  V30 7 C 3.5621 -3.034 0.0 0
M  V30 8 C 4.1309 -3.0103 0.0 0
M  V30 9 C 5.2551 -0.7585 0.0 0
M  V30 10 N 0.0 -0.7585 0.0 0
M  V30 11 C 1.3137 -4.5511 0.0 0
M  V30 12 C 3.9413 -4.5511 0.0 0
M  V30 13 C 5.2551 -3.7925 0.0 0
M  V30 14 C 6.5689 -1.517 0.0 0
M  V30 15 C -1.3137 0.0 0.0 0
M  V30 16 C 0.0 -2.2755 0.0 0
M  V30 17 C 2.6275 -5.3096 0.0 0
M  V30 18 C 6.5689 -3.034 0.0 0
M  V30 19 C -2.6275 -0.7585 0.0 0
M  V30 20 C -1.3137 -3.034 0.0 0
M  V30 21 N -2.6275 -2.2755 0.0 0 CHG=1
M  V30 22 C -4.1445 -2.2755 0.0 0
M  V30 23 C -3.386 -3.5893 0.0 0
M  V30 END ATOM
M  V30 BEGIN BOND
M  V30 1 1 2 1
M  V30 2 1 2 3
M  V30 3 1 2 4 CFG=3
M  V30 4 1 2 5
M  V30 5 2 3 6
M  V30 6 1 3 7
M  V30 7 1 4 8
M  V30 8 1 4 9
M  V30 9 1 5 10
M  V30 10 1 6 11
M  V30 11 2 7 12
M  V30 12 1 8 13
M  V30 13 1 9 14
M  V30 14 1 10 15
M  V30 15 1 10 16
M  V30 16 2 11 17
M  V30 17 1 13 18
M  V30 18 1 15 19
M  V30 19 1 16 20
M  V30 20 1 19 21
M  V30 21 1 21 22
M  V30 22 1 21 23
M  V30 23 1 12 17
M  V30 24 1 14 18
M  V30 25 1 20 21
M  V30 END BOND
M  V30 BEGIN COLLECTION
M  V30 MDLV30/STERAC1 ATOMS=(1 2)
M  V30 END COLLECTION
M  V30 END CTAB
M  END
>  <Molecule Name>


>  <status>
DISCONTINUED

>  <cas>
6004-98-4

>  <name>
HEXOCYCLIUM

>  <ID>
1338

>  <Smiles>
C[N+]1(C)CCN(CC(C2CCCCC2)(c2ccccc2)O)CC1

$$$$

Actelion Java MolfileCreator 2.0

  0  0  0  0  0  0              0 V3000
M  V30 BEGIN CTAB
M  V30 COUNTS 23 25 0 0 0
M  V30 BEGIN ATOM
M  V30 1 O 3.9413 0.0 0.0 0
M  V30 2 C 2.6275 -0.7585 0.0 0 CFG=2
M  V30 3 C 2.6275 -2.2755 0.0 0
M  V30 4 C 3.9413 -1.517 0.0 0
M  V30 5 C 1.3137 0.0 0.0 0
M  V30 6 C 1.3137 -3.034 0.0 0
M  V30 7 C 3.5621 -3.034 0.0 0
M  V30 8 C 4.1309 -3.0103 0.0 0
M  V30 9 C 5.2551 -0.7585 0.0 0
M  V30 10 N 0.0 -0.7585 0.0 0
M  V30 11 C 1.3137 -4.5511 0.0 0
M  V30 12 C 3.9413 -4.5511 0.0 0
M  V30 13 C 5.2551 -3.7925 0.0 0
M  V30 14 C 6.5689 -1.517 0.0 0
M  V30 15 C -1.3137 0.0 0.0 0
M  V30 16 C 0.0 -2.2755 0.0 0
M  V30 17 C 2.6275 -5.3096 0.0 0
M  V30 18 C 6.5689 -3.034 0.0 0
M  V30 19 C -2.6275 -0.7585 0.0 0
M  V30 20 C -1.3137 -3.034 0.0 0
M  V30 21 N -2.6275 -2.2755 0.0 0 CHG=1
M  V30 22 C -4.1445 -2.2755 0.0 0
M  V30 23 C -3.386 -3.5893 0.0 0
M  V30 END ATOM
M  V30 BEGIN BOND
M  V30 1 1 2 1
M  V30 2 1 2 3
M  V30 3 1 2 4 CFG=3
M  V30 4 1 2 5
M  V30 5 2 3 6
M  V30 6 1 3 7
M  V30 7 1 4 8
M  V30 8 1 4 9
M  V30 9 1 5 10
M  V30 10 1 6 11
M  V30 11 2 7 12
M  V30 12 1 8 13
M  V30 13 1 9 14
M  V30 14 1 10 15
M  V30 15 1 10 16
M  V30 16 2 11 17
M  V30 17 1 13 18
M  V30 18 1 15 19
M  V30 19 1 16 20
M  V30 20 1 19 21
M  V30 21 1 21 22
M  V30 22 1 21 23
M  V30 23 1 12 17
M  V30 24 1 14 18
M  V30 25 1 20 21
M  V30 END BOND
M  V30 BEGIN COLLECTION
M  V30 MDLV30/STERAC1 ATOMS=(1 2)
M  V30 END COLLECTION
M  V30 END CTAB
M  END
>  <Molecule Name>


>  <status>
DISCONTINUED

>  <cas>
6004-98-4

>  <name>
HEXOCYCLIUM

>  <ID>
1339

>  <Smiles>
C[N+]1(C)CCN(CC(C2CCCCC2)(c2ccccc2)O)CC1

$$$$

Actelion Java MolfileCreator 2.0

  0  0  0  0  0  0              0 V3000
M  V30 BEGIN CTAB
M  V30 COUNTS 30 33 0 0 0
M  V30 BEGIN ATOM
M  V30 1 O 12.4747 -9.8538 0.0 0
M  V30 2 C 11.4675 -8.7352 0.0 0
M  V30 3 C 9.9952 -9.0482 0.0 0
M  V30 4 C 11.9326 -7.3037 0.0 0
M  V30 5 C 8.9881 -7.9296 0.0 0
M  V30 6 C 10.9255 -6.1852 0.0 0
M  V30 7 C 9.4532 -6.4981 0.0 0 CFG=2
M  V30 8 C 7.5158 -8.2426 0.0 0 CFG=2
M  V30 9 C 8.446 -5.3795 0.0 0 CFG=1
M  V30 10 C 9.9183 -5.0666 0.0 0
M  V30 11 C 6.5086 -7.124 0.0 0
M  V30 12 C 7.0507 -9.6741 0.0 0
M  V30 13 C 8.9112 -3.948 0.0 0 CFG=1
M  V30 14 C 6.9738 -5.6925 0.0 0 CFG=1
M  V30 15 O 10.3834 -3.6351 0.0 0
M  V30 16 C 7.904 -2.8295 0.0 0
M  V30 17 C 5.9666 -4.5739 0.0 0 CFG=1
M  V30 18 C 6.4317 -3.1424 0.0 0 CFG=1
M  V30 19 C 4.4614 -4.5739 0.0 0
M  V30 20 C 5.214 -2.2577 0.0 0 CFG=1
M  V30 21 C 6.8652 -1.7311 0.0 0
M  V30 22 C 3.9963 -3.1424 0.0 0
M  V30 23 O 6.3141 -1.4526 0.0 0
M  V30 24 C 5.214 -0.7525 0.0 0
M  V30 25 O 6.5175 0.0 0.0 0
M  V30 26 C 3.9105 0.0 0.0 0
M  V30 27 O 2.607 -0.7525 0.0 0
M  V30 28 C 1.3035 0.0 0.0 0
M  V30 29 O 1.3035 1.5051 0.0 0
M  V30 30 C 0.0 -0.7525 0.0 0
M  V30 END ATOM
M  V30 BEGIN BOND
M  V30 1 2 1 2
M  V30 2 1 2 3
M  V30 3 1 2 4
M  V30 4 2 3 5
M  V30 5 2 4 6
M  V30 6 1 7 5
M  V30 7 1 8 5
M  V30 8 1 9 7
M  V30 9 1 7 10 CFG=3
M  V30 10 1 8 11
M  V30 11 1 8 12 CFG=1
M  V30 12 1 9 13 CFG=3
M  V30 13 1 14 9
M  V30 14 1 13 15 CFG=3
M  V30 15 1 13 16
M  V30 16 1 17 14
M  V30 17 1 18 16
M  V30 18 1 17 19 CFG=3
M  V30 19 1 20 18
M  V30 20 1 18 21 CFG=3
M  V30 21 1 19 22
M  V30 22 1 20 23 CFG=1
M  V30 23 1 20 24
M  V30 24 2 24 25
M  V30 25 1 24 26
M  V30 26 1 26 27
M  V30 27 1 27 28
M  V30 28 2 28 29
M  V30 29 1 28 30
M  V30 30 1 6 7
M  V30 31 1 14 11 CFG=1
M  V30 32 1 17 18
M  V30 33 1 20 22
M  V30 END BOND
M  V30 BEGIN COLLECTION
M  V30 MDLV30/STERAC1 ATOMS=(8 7 8 9 13 14 17 18 20)
M  V30 END COLLECTION
M  V30 END CTAB
M  END
>  <Molecule Name>


>  <status>
-

>  <cas>
53-36-1

>  <name>
METHYLPREDNISOLONE ACETATE

>  <ID>
1340

>  <Smiles>
C[C@@H](C[C@@H]([C@H](CC1)[C@](C)(C[C@@H]2O)[C@]1(C(COC(C)=O)=O)O)[C@H]2[C@@]1(C)C=C2)C1=CC2=O

$$$$

Actelion Java MolfileCreator 2.0

  0  0  0  0  0  0              0 V3000
M  V30 BEGIN CTAB
M  V30 COUNTS 38 42 0 0 0
M  V30 BEGIN ATOM
M  V30 1 F 8.3432 4.8289 0.0 0
M  V30 2 C 9.3292 3.4589 0.0 0 CFG=2
M  V30 3 C 9.9395 4.8296 0.0 0 CFG=2
M  V30 4 C 7.8369 3.3021 0.0 0 CFG=1
M  V30 5 C 10.2111 2.245 0.0 0 CFG=2
M  V30 6 C 11.4317 4.9865 0.0 0
M  V30 7 C 9.0575 6.0436 0.0 0
M  V30 8 C 8.6553 4.3607 0.0 0
M  V30 9 O 6.955 4.516 0.0 0
M  V30 10 C 7.2266 1.9313 0.0 0
M  V30 11 C 9.6009 0.8742 0.0 0 CFG=1
M  V30 12 C 11.7034 2.4018 0.0 0
M  V30 13 C 12.042 6.3572 0.0 0
M  V30 14 C 12.3137 3.7726 0.0 0
M  V30 15 C 9.6678 7.4143 0.0 0
M  V30 16 C 8.1086 0.7174 0.0 0 CFG=1
M  V30 17 C 10.2111 -0.4964 0.0 0
M  V30 18 C 11.1601 7.5711 0.0 0
M  V30 19 C 7.7966 -0.7502 0.0 0 CFG=1
M  V30 20 C 6.6944 0.5563 0.0 0
M  V30 21 C 9.0961 -1.5004 0.0 0 CFG=2
M  V30 22 O 11.7704 8.9419 0.0 0
M  V30 23 O 6.6816 -1.7542 0.0 0
M  V30 24 C 6.4705 -0.0754 0.0 0
M  V30 25 O 8.7841 -2.9681 0.0 0
M  V30 26 C 7.2919 -3.1249 0.0 0
M  V30 27 O 6.4972 1.5004 0.0 0
M  V30 28 C 5.1977 -0.7502 0.0 0
M  V30 29 C 5.9924 -3.8752 0.0 0
M  V30 30 C 7.2919 -4.6254 0.0 0
M  V30 31 O 3.8983 0.0 0.0 0
M  V30 32 C 2.5988 -0.7502 0.0 0
M  V30 33 O 2.5988 -2.2507 0.0 0
M  V30 34 C 1.2994 0.0 0.0 0
M  V30 35 C 0.0 -0.7502 0.0 0
M  V30 36 C 0.7502 -2.0496 0.0 0
M  V30 37 C -1.2994 -1.5004 0.0 0
M  V30 38 C -0.7502 0.5492 0.0 0
M  V30 END ATOM
M  V30 BEGIN BOND
M  V30 1 1 2 1 CFG=1
M  V30 2 1 3 2
M  V30 3 1 4 2
M  V30 4 1 5 2
M  V30 5 1 3 6
M  V30 6 1 3 7
M  V30 7 1 3 8 CFG=3
M  V30 8 1 4 9 CFG=3
M  V30 9 1 4 10
M  V30 10 1 11 5
M  V30 11 1 5 12 CFG=1
M  V30 12 2 6 13
M  V30 13 1 6 14
M  V30 14 2 7 15
M  V30 15 1 16 10
M  V30 16 1 11 17 CFG=3
M  V30 17 1 13 18
M  V30 18 1 19 16
M  V30 19 1 16 20 CFG=3
M  V30 20 1 21 17
M  V30 21 2 18 22
M  V30 22 1 19 23
M  V30 23 1 19 24 CFG=3
M  V30 24 1 21 25 CFG=1
M  V30 25 1 23 26
M  V30 26 2 24 27
M  V30 27 1 24 28
M  V30 28 1 26 29
M  V30 29 1 26 30
M  V30 30 1 28 31
M  V30 31 1 31 32
M  V30 32 2 32 33
M  V30 33 1 32 34
M  V30 34 1 34 35
M  V30 35 1 35 36
M  V30 36 1 35 37
M  V30 37 1 35 38
M  V30 38 1 11 16
M  V30 39 1 12 14
M  V30 40 1 15 18
M  V30 41 1 19 21
M  V30 42 1 25 26
M  V30 END BOND
M  V30 BEGIN COLLECTION
M  V30 MDLV30/STERAC1 ATOMS=(8 2 3 4 5 11 16 19 21)
M  V30 END COLLECTION
M  V30 END CTAB
M  END
>  <Molecule Name>


>  <status>
DISCONTINUED

>  <cas>
5611-51-8

>  <name>
TRIAMCINOLONE HEXACETONIDE

>  <ID>
1341

>  <Smiles>
CC(C)(C)CC(OCC([C@]12OC(C)(C)O[C@@H]2C[C@@H]([C@H](CCC([C@]2(C)C=C3)=CC3=O)[C@@]22F)[C@]1(C)C[C@@H]2O)=O)=O

$$$$
Molecule-1
Actelion Java MolfileCreator 2.0

  0  0  0  0  0  0              0 V3000
M  V30 BEGIN CTAB
M  V30 COUNTS 10 9 0 0 0
M  V30 BEGIN ATOM
M  V30 1 O 5.1961 -0.5 0.0 0
M  V30 2 C 4.3301 0.0 0.0 0
M  V30 3 C 3.4641 -0.5 0.0 0
M  V30 4 N 2.598 0.0 0.0 0
M  V30 5 C 2.598 0.9999 0.0 0
M  V30 6 C 1.732 -0.5 0.0 0
M  V30 7 C 3.4641 1.4999 0.0 0
M  V30 8 C 0.866 0.0 0.0 0
M  V30 9 O 3.4641 2.4999 0.0 0
M  V30 10 O 0.0 -0.5 0.0 0
M  V30 END ATOM
M  V30 BEGIN BOND
M  V30 1 1 1 2
M  V30 2 1 2 3
M  V30 3 1 3 4
M  V30 4 1 4 5
M  V30 5 1 4 6
M  V30 6 1 5 7
M  V30 7 1 6 8
M  V30 8 1 7 9
M  V30 9 1 8 10
M  V30 END BOND
M  V30 END CTAB
M  END
>  <Molecule Name>
Molecule-1

>  <status>
DISCONTINUED

>  <cas>
102-71-6

>  <name>
TROLAMINE

>  <ID>
1342

>  <Smiles>
OCCN(CCO)CCO

$$$$
Molecule-1
Actelion Java MolfileCreator 2.0

  0  0  0  0  0  0              0 V3000
M  V30 BEGIN CTAB
M  V30 COUNTS 38 41 0 0 0
M  V30 BEGIN ATOM
M  V30 1 S 12.1243 -6.4999 0.0 0
M  V30 2 C 12.9903 -5.9999 0.0 0
M  V30 3 C 11.2583 -6.0 0.0 0
M  V30 4 C 12.9903 -4.9999 0.0 0
M  V30 5 C 13.8564 -6.4999 0.0 0
M  V30 6 C 11.2583 -4.9999 0.0 0
M  V30 7 C 10.3923 -6.5 0.0 0
M  V30 8 N 12.1243 -4.4999 0.0 0
M  V30 9 C 13.8564 -4.4999 0.0 0
M  V30 10 C 14.7224 -5.9999 0.0 0
M  V30 11 C 10.3923 -4.5 0.0 0
M  V30 12 C 9.5262 -6.0 0.0 0
M  V30 13 C 12.1243 -3.4999 0.0 0
M  V30 14 C 14.7224 -4.9999 0.0 0
M  V30 15 C 9.5262 -5.0 0.0 0
M  V30 16 C 11.2583 -2.9999 0.0 0
M  V30 17 C 15.5884 -4.4999 0.0 0
M  V30 18 C 11.2583 -1.9999 0.0 0
M  V30 19 F 15.0884 -3.6339 0.0 0
M  V30 20 F 16.4544 -3.9999 0.0 0
M  V30 21 F 16.0884 -5.366 0.0 0
M  V30 22 N 10.3923 -1.4999 0.0 0
M  V30 23 C 10.3923 -0.4999 0.0 0
M  V30 24 C 9.5262 -1.9999 0.0 0
M  V30 25 C 9.5262 0.0 0.0 0
M  V30 26 C 8.6602 -1.5 0.0 0
M  V30 27 N 8.6602 -0.5 0.0 0
M  V30 28 C 7.7942 0.0 0.0 0
M  V30 29 C 6.9282 -0.5 0.0 0
M  V30 30 O 6.0621 0.0 0.0 0
M  V30 31 C 5.1961 -0.5 0.0 0
M  V30 32 O 5.1961 -1.4999 0.0 0
M  V30 33 C 4.3301 0.0 0.0 0
M  V30 34 C 3.4641 -0.5 0.0 0
M  V30 35 C 2.598 0.0 0.0 0
M  V30 36 C 1.732 -0.5 0.0 0
M  V30 37 C 0.866 0.0 0.0 0
M  V30 38 C 0.0 -0.5 0.0 0
M  V30 END ATOM
M  V30 BEGIN BOND
M  V30 1 1 1 2
M  V30 2 1 1 3
M  V30 3 2 2 4
M  V30 4 1 2 5
M  V30 5 2 3 6
M  V30 6 1 3 7
M  V30 7 1 4 8
M  V30 8 1 4 9
M  V30 9 2 5 10
M  V30 10 1 6 11
M  V30 11 2 7 12
M  V30 12 1 8 13
M  V30 13 2 9 14
M  V30 14 2 11 15
M  V30 15 1 13 16
M  V30 16 1 14 17
M  V30 17 1 16 18
M  V30 18 1 17 19
M  V30 19 1 17 20
M  V30 20 1 17 21
M  V30 21 1 18 22
M  V30 22 1 22 23
M  V30 23 1 22 24
M  V30 24 1 23 25
M  V30 25 1 24 26
M  V30 26 1 25 27
M  V30 27 1 27 28
M  V30 28 1 28 29
M  V30 29 1 29 30
M  V30 30 1 30 31
M  V30 31 2 31 32
M  V30 32 1 31 33
M  V30 33 1 33 34
M  V30 34 1 34 35
M  V30 35 1 35 36
M  V30 36 1 36 37
M  V30 37 1 37 38
M  V30 38 1 6 8
M  V30 39 1 10 14
M  V30 40 1 12 15
M  V30 41 1 26 27
M  V30 END BOND
M  V30 END CTAB
M  END
>  <Molecule Name>
Molecule-1

>  <status>
DISCONTINUED

>  <cas>
2746-81-8

>  <name>
FLUPHENAZINE ENANTHATE

>  <ID>
1343

>  <Smiles>
CCCCCCC(OCCN1CCN(CCCN2c(cc(C(F)(F)F)cc3)c3Sc3c2cccc3)CC1)=O

$$$$
Molecule-1
Actelion Java MolfileCreator 2.0

  0  0  0  0  0  0              0 V3000
M  V30 BEGIN CTAB
M  V30 COUNTS 41 44 0 0 0
M  V30 BEGIN ATOM
M  V30 1 S 18.1865 0.0 0.0 0
M  V30 2 C 18.1865 0.9999 0.0 0
M  V30 3 C 17.3205 -0.5 0.0 0
M  V30 4 C 17.3205 1.4999 0.0 0
M  V30 5 C 19.0525 1.4999 0.0 0
M  V30 6 C 16.4544 0.0 0.0 0
M  V30 7 C 17.3205 -1.5 0.0 0
M  V30 8 N 16.4544 0.9999 0.0 0
M  V30 9 C 17.3205 2.4999 0.0 0
M  V30 10 C 19.0525 2.4999 0.0 0
M  V30 11 C 15.5884 -0.5 0.0 0
M  V30 12 C 16.4544 -2.0 0.0 0
M  V30 13 C 15.5884 1.4999 0.0 0
M  V30 14 C 18.1865 2.9999 0.0 0
M  V30 15 C 15.5884 -1.5 0.0 0
M  V30 16 C 14.7224 0.9999 0.0 0
M  V30 17 C 18.1865 3.9999 0.0 0
M  V30 18 C 13.8564 1.4999 0.0 0
M  V30 19 F 17.1865 3.9999 0.0 0
M  V30 20 F 18.1865 4.9999 0.0 0
M  V30 21 F 19.1865 3.9999 0.0 0
M  V30 22 N 12.9903 0.9999 0.0 0
M  V30 23 C 12.1243 1.4999 0.0 0
M  V30 24 C 12.9903 0.0 0.0 0
M  V30 25 C 11.2583 0.9999 0.0 0
M  V30 26 C 12.1243 -0.5 0.0 0
M  V30 27 N 11.2583 0.0 0.0 0
M  V30 28 C 10.3923 -0.5 0.0 0
M  V30 29 C 9.5262 0.0 0.0 0
M  V30 30 O 8.6602 -0.5 0.0 0
M  V30 31 C 7.7942 0.0 0.0 0
M  V30 32 O 7.7942 0.9999 0.0 0
M  V30 33 C 6.9282 -0.5 0.0 0
M  V30 34 C 6.0621 0.0 0.0 0
M  V30 35 C 5.1961 -0.5 0.0 0
M  V30 36 C 4.3301 0.0 0.0 0
M  V30 37 C 3.4641 -0.5 0.0 0
M  V30 38 C 2.598 0.0 0.0 0
M  V30 39 C 1.732 -0.5 0.0 0
M  V30 40 C 0.866 0.0 0.0 0
M  V30 41 C 0.0 -0.5 0.0 0
M  V30 END ATOM
M  V30 BEGIN BOND
M  V30 1 1 1 2
M  V30 2 1 1 3
M  V30 3 2 2 4
M  V30 4 1 2 5
M  V30 5 2 3 6
M  V30 6 1 3 7
M  V30 7 1 4 8
M  V30 8 1 4 9
M  V30 9 2 5 10
M  V30 10 1 6 11
M  V30 11 2 7 12
M  V30 12 1 8 13
M  V30 13 2 9 14
M  V30 14 2 11 15
M  V30 15 1 13 16
M  V30 16 1 14 17
M  V30 17 1 16 18
M  V30 18 1 17 19
M  V30 19 1 17 20
M  V30 20 1 17 21
M  V30 21 1 18 22
M  V30 22 1 22 23
M  V30 23 1 22 24
M  V30 24 1 23 25
M  V30 25 1 24 26
M  V30 26 1 25 27
M  V30 27 1 27 28
M  V30 28 1 28 29
M  V30 29 1 29 30
M  V30 30 1 30 31
M  V30 31 2 31 32
M  V30 32 1 31 33
M  V30 33 1 33 34
M  V30 34 1 34 35
M  V30 35 1 35 36
M  V30 36 1 36 37
M  V30 37 1 37 38
M  V30 38 1 38 39
M  V30 39 1 39 40
M  V30 40 1 40 41
M  V30 41 1 6 8
M  V30 42 1 10 14
M  V30 43 1 12 15
M  V30 44 1 26 27
M  V30 END BOND
M  V30 END CTAB
M  END
>  <Molecule Name>
Molecule-1

>  <status>
-

>  <cas>
5002-47-1

>  <name>
FLUPHENAZINE DECANOATE

>  <ID>
1344

>  <Smiles>
CCCCCCCCCC(OCCN1CCN(CCCN2c(cc(C(F)(F)F)cc3)c3Sc3c2cccc3)CC1)=O

$$$$

Actelion Java MolfileCreator 2.0

  0  0  0  0  0  0              0 V3000
M  V30 BEGIN CTAB
M  V30 COUNTS 30 34 0 0 0
M  V30 BEGIN ATOM
M  V30 1 O 9.4331 10.0512 0.0 0
M  V30 2 C 8.9696 8.6247 0.0 0
M  V30 3 C 9.9733 7.5099 0.0 0
M  V30 4 C 7.5023 8.3128 0.0 0
M  V30 5 C 9.5097 6.0834 0.0 0
M  V30 6 C 7.0388 6.8862 0.0 0
M  V30 7 C 8.0425 5.7715 0.0 0 CFG=2
M  V30 8 C 10.5134 4.9686 0.0 0
M  V30 9 C 7.579 4.3449 0.0 0 CFG=2
M  V30 10 C 10.0499 3.5421 0.0 0
M  V30 11 C 8.5827 3.2302 0.0 0 CFG=1
M  V30 12 C 6.1118 4.033 0.0 0
M  V30 13 C 8.1192 1.8036 0.0 0 CFG=1
M  V30 14 C 5.6482 2.6065 0.0 0
M  V30 15 C 6.6519 1.4917 0.0 0 CFG=2
M  V30 16 C 8.8692 0.5046 0.0 0
M  V30 17 C 6.4951 0.0 0.0 0 CFG=2
M  V30 18 C 5.2253 1.0282 0.0 0
M  V30 19 C 7.8655 -0.6101 0.0 0
M  V30 20 O 5.1961 -0.75 0.0 0
M  V30 21 C 3.8971 0.0 0.0 0
M  V30 22 O 3.8971 1.5 0.0 0
M  V30 23 C 2.598 -0.75 0.0 0
M  V30 24 C 1.299 0.0 0.0 0
M  V30 25 C 0.0 -0.75 0.0 0
M  V30 26 C -1.299 0.0 0.0 0
M  V30 27 C 0.0 -2.25 0.0 0
M  V30 28 C -2.598 -0.7499 0.0 0
M  V30 29 C -1.299 -2.9999 0.0 0
M  V30 30 C -2.598 -2.2499 0.0 0
M  V30 END ATOM
M  V30 BEGIN BOND
M  V30 1 2 1 2
M  V30 2 1 2 3
M  V30 3 1 2 4
M  V30 4 2 3 5
M  V30 5 1 4 6
M  V30 6 1 7 5
M  V30 7 1 5 8
M  V30 8 1 9 7
M  V30 9 1 8 10
M  V30 10 1 11 9
M  V30 11 1 9 12 CFG=3
M  V30 12 1 13 11
M  V30 13 1 12 14
M  V30 14 1 15 13
M  V30 15 1 13 16 CFG=3
M  V30 16 1 17 15
M  V30 17 1 15 18 CFG=3
M  V30 18 1 16 19
M  V30 19 1 17 20 CFG=3
M  V30 20 1 20 21
M  V30 21 2 21 22
M  V30 22 1 21 23
M  V30 23 1 23 24
M  V30 24 1 24 25
M  V30 25 2 25 26
M  V30 26 1 25 27
M  V30 27 1 26 28
M  V30 28 2 27 29
M  V30 29 2 28 30
M  V30 30 1 7 6 CFG=1
M  V30 31 1 11 10 CFG=1
M  V30 32 1 14 15
M  V30 33 1 17 19
M  V30 34 1 29 30
M  V30 END BOND
M  V30 BEGIN COLLECTION
M  V30 MDLV30/STERAC1 ATOMS=(6 7 9 11 13 15 17)
M  V30 END COLLECTION
M  V30 END CTAB
M  END
>  <Molecule Name>


>  <status>
DISCONTINUED

>  <cas>
62-90-8

>  <name>
NANDROLONE PHENPROPIONATE

>  <ID>
1345

>  <Smiles>
C[C@](CC1)([C@@H](CC2)[C@H](CC3)[C@H]1[C@@H](CC1)C3=CC1=O)[C@H]2OC(CCc1ccccc1)=O

$$$$

Actelion Java MolfileCreator 2.0

  0  0  0  0  0  0              0 V3000
M  V30 BEGIN CTAB
M  V30 COUNTS 31 34 0 0 0
M  V30 BEGIN ATOM
M  V30 1 O 11.4849 6.7008 0.0 0
M  V30 2 C 11.1758 5.7498 0.0 0
M  V30 3 C 11.845 5.0066 0.0 0
M  V30 4 C 10.1977 5.5418 0.0 0
M  V30 5 C 11.536 4.0556 0.0 0
M  V30 6 C 9.8887 4.5908 0.0 0
M  V30 7 C 10.5578 3.8476 0.0 0 CFG=2
M  V30 8 C 12.2051 3.3124 0.0 0
M  V30 9 C 10.2488 2.8966 0.0 0 CFG=2
M  V30 10 C 11.8961 2.3614 0.0 0
M  V30 11 C 10.9179 2.1534 0.0 0 CFG=1
M  V30 12 C 9.2706 2.6887 0.0 0
M  V30 13 C 10.6089 1.2024 0.0 0 CFG=1
M  V30 14 C 8.9616 1.7376 0.0 0
M  V30 15 C 9.6308 0.9945 0.0 0 CFG=2
M  V30 16 C 11.1089 0.3364 0.0 0
M  V30 17 C 9.5262 0.0 0.0 0 CFG=2
M  V30 18 C 8.6797 0.6855 0.0 0
M  V30 19 C 10.4398 -0.4067 0.0 0
M  V30 20 O 8.6602 -0.5 0.0 0
M  V30 21 C 7.7942 0.0 0.0 0
M  V30 22 O 7.7942 0.9999 0.0 0
M  V30 23 C 6.9282 -0.5 0.0 0
M  V30 24 C 6.0621 0.0 0.0 0
M  V30 25 C 5.1961 -0.5 0.0 0
M  V30 26 C 4.3301 0.0 0.0 0
M  V30 27 C 3.4641 -0.5 0.0 0
M  V30 28 C 2.598 0.0 0.0 0
M  V30 29 C 1.732 -0.5 0.0 0
M  V30 30 C 0.866 0.0 0.0 0
M  V30 31 C 0.0 -0.5 0.0 0
M  V30 END ATOM
M  V30 BEGIN BOND
M  V30 1 2 1 2
M  V30 2 1 2 3
M  V30 3 1 2 4
M  V30 4 2 3 5
M  V30 5 1 4 6
M  V30 6 1 7 5
M  V30 7 1 5 8
M  V30 8 1 9 7
M  V30 9 1 8 10
M  V30 10 1 11 9
M  V30 11 1 9 12 CFG=3
M  V30 12 1 13 11
M  V30 13 1 12 14
M  V30 14 1 15 13
M  V30 15 1 13 16 CFG=3
M  V30 16 1 17 15
M  V30 17 1 15 18 CFG=3
M  V30 18 1 16 19
M  V30 19 1 17 20 CFG=3
M  V30 20 1 20 21
M  V30 21 2 21 22
M  V30 22 1 21 23
M  V30 23 1 23 24
M  V30 24 1 24 25
M  V30 25 1 25 26
M  V30 26 1 26 27
M  V30 27 1 27 28
M  V30 28 1 28 29
M  V30 29 1 29 30
M  V30 30 1 30 31
M  V30 31 1 7 6 CFG=1
M  V30 32 1 11 10 CFG=1
M  V30 33 1 14 15
M  V30 34 1 17 19
M  V30 END BOND
M  V30 BEGIN COLLECTION
M  V30 MDLV30/STERAC1 ATOMS=(6 7 9 11 13 15 17)
M  V30 END COLLECTION
M  V30 END CTAB
M  END
>  <Molecule Name>


>  <status>
DISCONTINUED

>  <cas>
360-70-3

>  <name>
NANDROLONE DECANOATE

>  <ID>
1346

>  <Smiles>
CCCCCCCCCC(O[C@@H](CC1)[C@@](C)(CC2)[C@@H]1[C@H](CC1)[C@H]2[C@@H](CC2)C1=CC2=O)=O

$$$$

Actelion Java MolfileCreator 2.0

  0  0  0  0  0  0              0 V3000
M  V30 BEGIN CTAB
M  V30 COUNTS 27 30 0 0 0
M  V30 BEGIN ATOM
M  V30 1 F 4.4452 -9.6774 0.0 0
M  V30 2 C 4.9105 -8.2454 0.0 0 CFG=2
M  V30 3 C 6.3832 -7.9323 0.0 0
M  V30 4 C 3.903 -7.1265 0.0 0
M  V30 5 C 7.3907 -9.0513 0.0 0
M  V30 6 C 6.8485 -6.5004 0.0 0 CFG=2
M  V30 7 C 4.3682 -5.6945 0.0 0 CFG=2
M  V30 8 C 8.8635 -8.7382 0.0 0
M  V30 9 C 8.3213 -6.1873 0.0 0
M  V30 10 C 5.841 -5.3814 0.0 0 CFG=2
M  V30 11 C 7.3138 -5.0684 0.0 0
M  V30 12 C 3.3607 -4.5755 0.0 0 CFG=1
M  V30 13 O 9.871 -9.8572 0.0 0
M  V30 14 C 9.3288 -7.3062 0.0 0
M  V30 15 C 6.3063 -3.9494 0.0 0 CFG=1
M  V30 16 C 3.826 -3.1435 0.0 0 CFG=2
M  V30 17 C 1.855 -4.5755 0.0 0
M  V30 18 O 7.7791 -3.6364 0.0 0
M  V30 19 C 5.2988 -2.8305 0.0 0
M  V30 20 C 2.6079 -2.2585 0.0 0 CFG=1
M  V30 21 C 4.2596 -1.7317 0.0 0
M  V30 22 C 1.3898 -3.1435 0.0 0
M  V30 23 O 3.7083 -1.4531 0.0 0
M  V30 24 C 2.6079 -0.7528 0.0 0
M  V30 25 O 3.9119 0.0 0.0 0
M  V30 26 C 1.3039 0.0 0.0 0
M  V30 27 O 0.0 -0.7528 0.0 0
M  V30 END ATOM
M  V30 BEGIN BOND
M  V30 1 1 2 1 CFG=1
M  V30 2 1 2 3
M  V30 3 1 2 4
M  V30 4 2 3 5
M  V30 5 1 6 3
M  V30 6 1 7 4 CFG=1
M  V30 7 1 5 8
M  V30 8 1 6 9
M  V30 9 1 10 6
M  V30 10 1 6 11 CFG=3
M  V30 11 1 12 7
M  V30 12 2 8 13
M  V30 13 1 8 14
M  V30 14 1 10 15 CFG=3
M  V30 15 1 16 12
M  V30 16 1 12 17 CFG=3
M  V30 17 1 15 18 CFG=3
M  V30 18 1 15 19
M  V30 19 1 20 16
M  V30 20 1 16 21 CFG=3
M  V30 21 1 17 22
M  V30 22 1 20 23 CFG=1
M  V30 23 1 20 24
M  V30 24 2 24 25
M  V30 25 1 24 26
M  V30 26 1 26 27
M  V30 27 1 10 7
M  V30 28 2 9 14
M  V30 29 1 16 19
M  V30 30 1 20 22
M  V30 END BOND
M  V30 BEGIN COLLECTION
M  V30 MDLV30/STERAC1 ATOMS=(8 2 6 7 10 12 15 16 20)
M  V30 END COLLECTION
M  V30 END CTAB
M  END
>  <Molecule Name>


>  <status>
DISCONTINUED

>  <cas>
53-34-9

>  <name>
FLUPREDNISOLONE

>  <ID>
1347

>  <Smiles>
C[C@](C[C@@H]1O)([C@@H](CC2)[C@H](C[C@@H]3F)[C@H]1[C@@](C)(C=C1)C3=CC1=O)[C@]2(C(CO)=O)O

$$$$

Actelion Java MolfileCreator 2.0

  0  0  0  0  0  0              0 V3000
M  V30 BEGIN CTAB
M  V30 COUNTS 36 40 0 0 0
M  V30 BEGIN ATOM
M  V30 1 F -0.0916 -3.9138 0.0 0
M  V30 2 C -0.7225 -3.3966 0.0 0 CFG=2
M  V30 3 C -1.0315 -4.3476 0.0 0 CFG=2
M  V30 4 C 0.2555 -3.1887 0.0 0 CFG=1
M  V30 5 C -1.3916 -2.6534 0.0 0 CFG=2
M  V30 6 C -2.0097 -4.5556 0.0 0
M  V30 7 C -0.3624 -5.0908 0.0 0
M  V30 8 C 0.1965 -4.1397 0.0 0
M  V30 9 O 0.9247 -3.9318 0.0 0
M  V30 10 C 0.526 -2.2714 0.0 0
M  V30 11 C -1.0826 -1.7024 0.0 0 CFG=1
M  V30 12 C -2.3698 -2.8614 0.0 0
M  V30 13 C -2.3187 -5.5066 0.0 0
M  V30 14 C -2.6788 -3.8124 0.0 0
M  V30 15 C -0.6714 -6.0418 0.0 0
M  V30 16 C -0.1045 -1.4945 0.0 0 CFG=1
M  V30 17 C -1.5826 -0.8364 0.0 0
M  V30 18 C -1.6496 -6.2498 0.0 0
M  V30 19 C 0.0 -0.5 0.0 0 CFG=1
M  V30 20 C 0.9358 -1.3027 0.0 0
M  V30 21 C -0.9135 -0.0932 0.0 0 CFG=1
M  V30 22 O -1.9586 -7.2008 0.0 0
M  V30 23 O 0.866 0.0 0.0 0
M  V30 24 C 0.8179 -0.9322 0.0 0
M  V30 25 C -1.1214 0.8848 0.0 0
M  V30 26 C 0.866 1.0 0.0 0
M  V30 27 O 0.8634 -1.9756 0.0 0
M  V30 28 C 1.7296 -0.5906 0.0 0
M  V30 29 O 0.0 1.4999 0.0 0
M  V30 30 C 1.732 1.5 0.0 0
M  V30 31 O 2.5683 -1.1352 0.0 0
M  V30 32 C 2.598 0.9999 0.0 0
M  V30 33 C 1.732 2.4999 0.0 0
M  V30 34 C 3.4641 1.4999 0.0 0
M  V30 35 C 2.598 2.9999 0.0 0
M  V30 36 C 3.4641 2.4999 0.0 0
M  V30 END ATOM
M  V30 BEGIN BOND
M  V30 1 1 2 1 CFG=1
M  V30 2 1 3 2
M  V30 3 1 4 2
M  V30 4 1 5 2
M  V30 5 1 3 6
M  V30 6 1 3 7
M  V30 7 1 3 8 CFG=3
M  V30 8 1 4 9 CFG=3
M  V30 9 1 4 10
M  V30 10 1 11 5
M  V30 11 1 5 12 CFG=1
M  V30 12 2 6 13
M  V30 13 1 6 14
M  V30 14 2 7 15
M  V30 15 1 16 10
M  V30 16 1 11 17 CFG=3
M  V30 17 1 13 18
M  V30 18 1 19 16
M  V30 19 1 16 20 CFG=3
M  V30 20 1 21 17
M  V30 21 2 18 22
M  V30 22 1 19 23
M  V30 23 1 19 24 CFG=3
M  V30 24 1 21 25 CFG=3
M  V30 25 1 23 26
M  V30 26 2 24 27
M  V30 27 1 24 28
M  V30 28 2 26 29
M  V30 29 1 26 30
M  V30 30 1 28 31
M  V30 31 2 30 32
M  V30 32 1 30 33
M  V30 33 1 32 34
M  V30 34 2 33 35
M  V30 35 2 34 36
M  V30 36 1 11 16
M  V30 37 1 12 14
M  V30 38 1 15 18
M  V30 39 1 19 21
M  V30 40 1 35 36
M  V30 END BOND
M  V30 BEGIN COLLECTION
M  V30 MDLV30/STERAC1 ATOMS=(8 2 3 4 5 11 16 19 21)
M  V30 END COLLECTION
M  V30 END CTAB
M  END
>  <Molecule Name>


>  <status>
DISCONTINUED

>  <cas>
22298-29-9

>  <name>
BETAMETHASONE BENZOATE

>  <ID>
1348

>  <Smiles>
C[C@@H](C[C@@H]([C@H](CCC([C@]1(C)C=C2)=CC2=O)[C@@]11F)[C@]2(C)C[C@@H]1O)[C@@]2(C(CO)=O)OC(c1ccccc1)=O

$$$$

Actelion Java MolfileCreator 2.0

  0  0  0  0  0  0              0 V3000
M  V30 BEGIN CTAB
M  V30 COUNTS 36 39 0 0 0
M  V30 BEGIN ATOM
M  V30 1 F 2.0506 -1.3291 0.0 0
M  V30 2 C 2.2723 0.0427 0.0 0 CFG=2
M  V30 3 C 0.8161 -0.3474 0.0 0 CFG=2
M  V30 4 C 3.3383 -1.0232 0.0 0 CFG=1
M  V30 5 C 2.6624 1.4989 0.0 0 CFG=2
M  V30 6 C -0.2498 0.7185 0.0 0
M  V30 7 C 0.4259 -1.8036 0.0 0
M  V30 8 C 1.545 -1.5819 0.0 0
M  V30 9 O 2.9481 -2.4794 0.0 0
M  V30 10 C 4.7201 -0.612 0.0 0
M  V30 11 C 4.1186 1.8891 0.0 0 CFG=1
M  V30 12 C 1.5964 2.5649 0.0 0
M  V30 13 C -1.706 0.3284 0.0 0
M  V30 14 C 0.1402 2.1747 0.0 0
M  V30 15 C -1.0302 -2.1937 0.0 0
M  V30 16 C 5.1847 0.8231 0.0 0 CFG=1
M  V30 17 C 4.8031 3.2324 0.0 0
M  V30 18 C -2.0962 -1.1277 0.0 0
M  V30 19 C 6.5279 1.5075 0.0 0 CFG=1
M  V30 20 C 6.2716 -0.3375 0.0 0
M  V30 21 C 6.2921 2.9965 0.0 0 CFG=1
M  V30 22 O -3.5524 -1.5179 0.0 0
M  V30 23 O 7.8712 0.8231 0.0 0
M  V30 24 C 6.6505 0.1148 0.0 0
M  V30 25 C 7.3581 4.0625 0.0 0
M  V30 26 C 9.1355 1.6442 0.0 0
M  V30 27 O 7.8335 -0.7537 0.0 0
M  V30 28 C 5.3711 -0.7957 0.0 0
M  V30 29 O 9.0566 3.1497 0.0 0
M  V30 30 C 10.4788 0.9598 0.0 0
M  V30 31 O 5.2223 -2.2613 0.0 0
M  V30 32 C 11.7431 1.7808 0.0 0
M  V30 33 C 6.5279 -3.0151 0.0 0
M  V30 34 O 7.8335 -2.2613 0.0 0
M  V30 35 C 6.5279 -4.5226 0.0 0
M  V30 36 C 7.8335 -5.2764 0.0 0
M  V30 END ATOM
M  V30 BEGIN BOND
M  V30 1 1 2 1 CFG=1
M  V30 2 1 3 2
M  V30 3 1 4 2
M  V30 4 1 5 2
M  V30 5 1 3 6
M  V30 6 1 3 7
M  V30 7 1 3 8 CFG=3
M  V30 8 1 4 9 CFG=3
M  V30 9 1 4 10
M  V30 10 1 11 5
M  V30 11 1 5 12 CFG=1
M  V30 12 2 6 13
M  V30 13 1 6 14
M  V30 14 2 7 15
M  V30 15 1 16 10
M  V30 16 1 11 17 CFG=3
M  V30 17 1 13 18
M  V30 18 1 19 16
M  V30 19 1 16 20 CFG=3
M  V30 20 1 21 17
M  V30 21 2 18 22
M  V30 22 1 19 23
M  V30 23 1 19 24 CFG=3
M  V30 24 1 21 25 CFG=3
M  V30 25 1 23 26
M  V30 26 2 24 27
M  V30 27 1 24 28
M  V30 28 2 26 29
M  V30 29 1 26 30
M  V30 30 1 28 31
M  V30 31 1 30 32
M  V30 32 1 31 33
M  V30 33 2 33 34
M  V30 34 1 33 35
M  V30 35 1 35 36
M  V30 36 1 11 16
M  V30 37 1 12 14
M  V30 38 1 15 18
M  V30 39 1 19 21
M  V30 END BOND
M  V30 BEGIN COLLECTION
M  V30 MDLV30/STERAC1 ATOMS=(8 2 3 4 5 11 16 19 21)
M  V30 END COLLECTION
M  V30 END CTAB
M  END
>  <Molecule Name>


>  <status>
-

>  <cas>
5593-20-4

>  <name>
BETAMETHASONE DIPROPIONATE

>  <ID>
1349

>  <Smiles>
CCC(OCC([C@@]([C@@H](C)C1)([C@@](C)(C[C@@H]2O)[C@@H]1[C@H](CCC([C@]1(C)C=C3)=CC3=O)[C@@]12F)OC(CC)=O)=O)=O

$$$$

Actelion Java MolfileCreator 2.0

  0  0  0  0  0  0              0 V3000
M  V30 BEGIN CTAB
M  V30 COUNTS 31 34 0 0 0
M  V30 BEGIN ATOM
M  V30 1 F 7.0431 -9.6637 0.0 0
M  V30 2 C 7.5077 -8.2337 0.0 0 CFG=2
M  V30 3 C 8.9784 -7.9211 0.0 0
M  V30 4 C 6.5017 -7.1164 0.0 0
M  V30 5 C 9.9845 -9.0385 0.0 0
M  V30 6 C 9.4431 -6.4911 0.0 0 CFG=2
M  V30 7 C 6.9663 -5.6864 0.0 0 CFG=2
M  V30 8 C 11.4552 -8.7259 0.0 0
M  V30 9 C 10.9138 -6.1785 0.0 0
M  V30 10 C 8.437 -5.3738 0.0 0 CFG=2
M  V30 11 C 9.9077 -5.0612 0.0 0
M  V30 12 C 5.9602 -4.569 0.0 0 CFG=1
M  V30 13 O 12.4613 -9.8432 0.0 0
M  V30 14 C 11.9198 -7.2959 0.0 0
M  V30 15 C 8.9016 -3.9438 0.0 0 CFG=1
M  V30 16 C 6.4248 -3.1391 0.0 0 CFG=2
M  V30 17 C 4.4566 -4.569 0.0 0
M  V30 18 O 10.3723 -3.6312 0.0 0
M  V30 19 C 7.8955 -2.8264 0.0 0
M  V30 20 C 5.2084 -2.2553 0.0 0 CFG=1
M  V30 21 C 6.9783 -1.79 0.0 0
M  V30 22 C 3.992 -3.1391 0.0 0 CFG=2
M  V30 23 O 6.4277 -1.5118 0.0 0
M  V30 24 C 5.2084 -0.7517 0.0 0
M  V30 25 C 2.5621 -2.6744 0.0 0
M  V30 26 O 6.5105 0.0 0.0 0
M  V30 27 C 3.9063 0.0 0.0 0
M  V30 28 O 2.6042 -0.7517 0.0 0
M  V30 29 C 1.3021 0.0 0.0 0
M  V30 30 O 1.3021 1.5035 0.0 0
M  V30 31 C 0.0 -0.7517 0.0 0
M  V30 END ATOM
M  V30 BEGIN BOND
M  V30 1 1 2 1 CFG=1
M  V30 2 1 2 3
M  V30 3 1 2 4
M  V30 4 2 3 5
M  V30 5 1 6 3
M  V30 6 1 7 4 CFG=1
M  V30 7 1 5 8
M  V30 8 1 6 9
M  V30 9 1 10 6
M  V30 10 1 6 11 CFG=3
M  V30 11 1 12 7
M  V30 12 2 8 13
M  V30 13 1 8 14
M  V30 14 1 10 15 CFG=3
M  V30 15 1 16 12
M  V30 16 1 12 17 CFG=3
M  V30 17 1 15 18 CFG=3
M  V30 18 1 15 19
M  V30 19 1 20 16
M  V30 20 1 16 21 CFG=3
M  V30 21 1 22 17
M  V30 22 1 20 23 CFG=1
M  V30 23 1 20 24
M  V30 24 1 22 25 CFG=1
M  V30 25 2 24 26
M  V30 26 1 24 27
M  V30 27 1 27 28
M  V30 28 1 28 29
M  V30 29 2 29 30
M  V30 30 1 29 31
M  V30 31 1 10 7
M  V30 32 2 9 14
M  V30 33 1 16 19
M  V30 34 1 20 22
M  V30 END BOND
M  V30 BEGIN COLLECTION
M  V30 MDLV30/STERAC1 ATOMS=(9 2 6 7 10 12 15 16 20 22)
M  V30 END COLLECTION
M  V30 END CTAB
M  END
>  <Molecule Name>


>  <status>
DISCONTINUED

>  <cas>
1597-82-6

>  <name>
PARAMETHASONE ACETATE

>  <ID>
1350

>  <Smiles>
C[C@H](C[C@@H]([C@H](C[C@@H]1F)[C@H]2[C@@](C)(C=C3)C1=CC3=O)[C@]1(C)C[C@@H]2O)[C@@]1(C(COC(C)=O)=O)O

$$$$

Actelion Java MolfileCreator 2.0

  0  0  0  0  0  0              0 V3000
M  V30 BEGIN CTAB
M  V30 COUNTS 24 28 0 0 0
M  V30 BEGIN ATOM
M  V30 1 O -1.3816 1.1935 0.0 0
M  V30 2 C 0.0855 0.8816 0.0 0 CFG=2
M  V30 3 C 1.299 0.0 0.0 0 CFG=2
M  V30 4 C 0.549 2.3082 0.0 0
M  V30 5 C -0.9181 -0.233 0.0 0
M  V30 6 C 2.5125 0.8816 0.0 0 CFG=1
M  V30 7 C 1.4558 -1.4917 0.0 0
M  V30 8 C 0.0 -0.75 0.0 0
M  V30 9 C 2.049 2.3082 0.0 0
M  V30 10 C 3.8828 0.2715 0.0 0 CFG=1
M  V30 11 C 2.8261 -2.1018 0.0 0
M  V30 12 C 4.0396 -1.2202 0.0 0 CFG=2
M  V30 13 C 5.0964 1.1532 0.0 0
M  V30 14 C 5.41 -1.8303 0.0 0 CFG=2
M  V30 15 C 6.4667 0.5431 0.0 0
M  V30 16 C 6.6235 -0.9486 0.0 0 CFG=1
M  V30 17 C 5.5667 -3.3221 0.0 0
M  V30 18 C 4.1964 -2.7119 0.0 0
M  V30 19 C 7.9938 -1.5587 0.0 0
M  V30 20 C 6.9371 -3.9322 0.0 0
M  V30 21 C 8.1506 -3.0505 0.0 0
M  V30 22 C 7.4006 -5.3587 0.0 0
M  V30 23 N 9.3641 -3.9322 0.0 0
M  V30 24 N 8.9006 -5.3587 0.0 0
M  V30 END ATOM
M  V30 BEGIN BOND
M  V30 1 1 2 1 CFG=1
M  V30 2 1 3 2
M  V30 3 1 2 4
M  V30 4 1 2 5
M  V30 5 1 6 3
M  V30 6 1 3 7
M  V30 7 1 3 8 CFG=1
M  V30 8 1 4 9
M  V30 9 1 10 6
M  V30 10 1 7 11
M  V30 11 1 12 10
M  V30 12 1 10 13 CFG=3
M  V30 13 1 14 12
M  V30 14 1 13 15
M  V30 15 1 16 14
M  V30 16 1 14 17
M  V30 17 1 14 18 CFG=1
M  V30 18 1 16 19 CFG=1
M  V30 19 1 17 20
M  V30 20 1 19 21
M  V30 21 1 20 22
M  V30 22 1 21 23
M  V30 23 2 22 24
M  V30 24 1 6 9 CFG=1
M  V30 25 1 12 11 CFG=1
M  V30 26 1 15 16
M  V30 27 2 20 21
M  V30 28 1 23 24
M  V30 END BOND
M  V30 BEGIN COLLECTION
M  V30 MDLV30/STERAC1 ATOMS=(7 2 3 6 10 12 14 16)
M  V30 END COLLECTION
M  V30 END CTAB
M  END
>  <Molecule Name>


>  <status>
DISCONTINUED

>  <cas>
10418-03-8

>  <name>
STANOZOLOL

>  <ID>
1351

>  <Smiles>
C[C@](CC1)([C@@](C)(CC2)[C@@H]1[C@H](CC1)[C@H]2[C@@](C)(C2)[C@@H]1Cc1c2cn[nH]1)O

$$$$

Actelion Java MolfileCreator 2.0

  0  0  0  0  0  0              0 V3000
M  V30 BEGIN CTAB
M  V30 COUNTS 25 26 0 0 0
M  V30 BEGIN ATOM
M  V30 1 O 5.1961 -1.4999 0.0 0
M  V30 2 C 5.1961 -0.5 0.0 0
M  V30 3 O 4.3301 0.0 0.0 0
M  V30 4 C 6.0621 0.0 0.0 0
M  V30 5 C 3.4641 -0.5 0.0 0 CFG=2
M  V30 6 C 6.9282 -0.5 0.0 0
M  V30 7 C 3.4641 0.5 0.0 0
M  V30 8 C 2.598 0.0 0.0 0 CFG=1
M  V30 9 C 3.4641 -1.5 0.0 0
M  V30 10 C 4.3301 1.0 0.0 0
M  V30 11 C 2.7646 1.0274 0.0 0
M  V30 12 C 1.732 -0.5 0.0 0
M  V30 13 C 2.4081 1.1535 0.0 0
M  V30 14 C 2.598 -2.0 0.0 0
M  V30 15 C 4.3301 2.0 0.0 0
M  V30 16 C 2.598 1.9999 0.0 0
M  V30 17 N 0.866 0.0 0.0 0
M  V30 18 C 1.732 -1.5 0.0 0
M  V30 19 C 2.598 -2.9999 0.0 0
M  V30 20 C 3.4641 2.5 0.0 0
M  V30 21 C 0.866 1.0 0.0 0
M  V30 22 C 0.0 -0.5 0.0 0
M  V30 23 C 0.866 -2.0 0.0 0
M  V30 24 C 1.732 -3.5 0.0 0
M  V30 25 C 0.866 -2.9999 0.0 0
M  V30 END ATOM
M  V30 BEGIN BOND
M  V30 1 2 1 2
M  V30 2 1 2 3
M  V30 3 1 2 4
M  V30 4 1 5 3
M  V30 5 1 4 6
M  V30 6 1 5 7 CFG=3
M  V30 7 1 8 5
M  V30 8 1 5 9
M  V30 9 2 7 10
M  V30 10 1 7 11
M  V30 11 1 8 12
M  V30 12 1 8 13 CFG=1
M  V30 13 1 9 14
M  V30 14 1 10 15
M  V30 15 2 11 16
M  V30 16 1 12 17
M  V30 17 2 14 18
M  V30 18 1 14 19
M  V30 19 2 15 20
M  V30 20 1 17 21
M  V30 21 1 17 22
M  V30 22 1 18 23
M  V30 23 2 19 24
M  V30 24 2 23 25
M  V30 25 1 16 20
M  V30 26 1 24 25
M  V30 END BOND
M  V30 BEGIN COLLECTION
M  V30 MDLV30/STERAC1 ATOMS=(2 5 8)
M  V30 END COLLECTION
M  V30 END CTAB
M  END
>  <Molecule Name>


>  <status>
DISCONTINUED

>  <cas>
2338-37-6

>  <name>
LEVOPROPOXYPHENE

>  <ID>
1352

>  <Smiles>
CCC(O[C@@](Cc1ccccc1)([C@H](C)CN(C)C)c1ccccc1)=O

$$$$

Actelion Java MolfileCreator 2.0

  0  0  0  0  0  0              0 V3000
M  V30 BEGIN CTAB
M  V30 COUNTS 26 29 0 0 0
M  V30 BEGIN ATOM
M  V30 1 O 10.2465 1.1542 0.0 0
M  V30 2 C 9.2683 0.9462 0.0 0
M  V30 3 C 8.5992 1.6894 0.0 0 CFG=1
M  V30 4 C 8.9593 -0.0047 0.0 0
M  V30 5 C 7.6211 1.4815 0.0 0
M  V30 6 C 8.9082 2.6404 0.0 0
M  V30 7 C 7.9812 -0.2126 0.0 0 CFG=1
M  V30 8 C 7.312 0.5304 0.0 0 CFG=1
M  V30 9 C 7.6722 -1.1637 0.0 0
M  V30 10 C 6.3339 0.3225 0.0 0 CFG=2
M  V30 11 C 6.6429 1.2736 0.0 0
M  V30 12 C 6.694 -1.3716 0.0 0
M  V30 13 C 6.0249 -0.6284 0.0 0 CFG=1
M  V30 14 C 5.6648 1.0657 0.0 0
M  V30 15 C 5.0467 -0.8364 0.0 0 CFG=1
M  V30 16 C 4.6866 0.8577 0.0 0
M  V30 17 C 4.3776 -0.0932 0.0 0 CFG=2
M  V30 18 C 4.5467 -1.7024 0.0 0
M  V30 19 C 3.4641 -0.5 0.0 0 CFG=2
M  V30 20 C 3.6345 0.5758 0.0 0
M  V30 21 C 3.5686 -1.4945 0.0 0
M  V30 22 O 2.598 0.0 0.0 0
M  V30 23 C 1.732 -0.5 0.0 0
M  V30 24 O 1.732 -1.5 0.0 0
M  V30 25 C 0.866 0.0 0.0 0
M  V30 26 C 0.0 -0.5 0.0 0
M  V30 END ATOM
M  V30 BEGIN BOND
M  V30 1 2 1 2
M  V30 2 1 3 2
M  V30 3 1 2 4
M  V30 4 1 3 5
M  V30 5 1 3 6 CFG=1
M  V30 6 1 7 4 CFG=3
M  V30 7 1 8 5
M  V30 8 1 7 9
M  V30 9 1 10 8
M  V30 10 1 8 11 CFG=3
M  V30 11 1 9 12
M  V30 12 1 13 10
M  V30 13 1 10 14 CFG=3
M  V30 14 1 15 13
M  V30 15 1 14 16
M  V30 16 1 17 15
M  V30 17 1 15 18 CFG=3
M  V30 18 1 19 17
M  V30 19 1 17 20 CFG=3
M  V30 20 1 18 21
M  V30 21 1 19 22 CFG=3
M  V30 22 1 22 23
M  V30 23 2 23 24
M  V30 24 1 23 25
M  V30 25 1 25 26
M  V30 26 1 7 8
M  V30 27 1 13 12 CFG=1
M  V30 28 1 16 17
M  V30 29 1 19 21
M  V30 END BOND
M  V30 BEGIN COLLECTION
M  V30 MDLV30/STERAC1 ATOMS=(8 3 7 8 10 13 15 17 19)
M  V30 END COLLECTION
M  V30 END CTAB
M  END
>  <Molecule Name>


>  <status>
DISCONTINUED

>  <cas>
521-12-0

>  <name>
DROMOSTANOLONE PROPIONATE

>  <ID>
1353

>  <Smiles>
CCC(O[C@@H](CC1)[C@@](C)(CC2)[C@@H]1[C@H](CC1)[C@H]2[C@@](C)(C[C@H]2C)[C@@H]1CC2=O)=O

$$$$
Molecule-1
Actelion Java MolfileCreator 2.0

  0  0  0  0  0  0              0 V3000
M  V30 BEGIN CTAB
M  V30 COUNTS 22 24 0 0 0
M  V30 BEGIN ATOM
M  V30 1 S 2.598 -0.75 0.0 0
M  V30 2 O 1.848 -2.049 0.0 0
M  V30 3 O 3.348 -2.049 0.0 0
M  V30 4 N 1.299 0.0 0.0 0
M  V30 5 C 3.8971 0.0 0.0 0
M  V30 6 C 0.0 -0.75 0.0 0
M  V30 7 C 5.1961 -0.75 0.0 0
M  V30 8 C 3.8971 1.5 0.0 0
M  V30 9 N -1.3703 -0.1398 0.0 0
M  V30 10 C -0.1567 -2.2417 0.0 0
M  V30 11 C 6.4952 0.0 0.0 0
M  V30 12 C 5.1961 2.25 0.0 0
M  V30 13 N -2.374 -1.2546 0.0 0
M  V30 14 C -1.6821 1.3273 0.0 0
M  V30 15 C -1.624 -2.5536 0.0 0
M  V30 16 C 6.4952 1.5 0.0 0
M  V30 17 C -0.5674 2.331 0.0 0
M  V30 18 C -3.1087 1.7908 0.0 0
M  V30 19 N 7.7942 2.25 0.0 0
M  V30 20 C -0.8793 3.7982 0.0 0
M  V30 21 C -3.4206 3.258 0.0 0
M  V30 22 C -2.3059 4.2617 0.0 0
M  V30 END ATOM
M  V30 BEGIN BOND
M  V30 1 2 1 2
M  V30 2 2 1 3
M  V30 3 1 1 4
M  V30 4 1 1 5
M  V30 5 1 4 6
M  V30 6 2 5 7
M  V30 7 1 5 8
M  V30 8 1 6 9
M  V30 9 2 6 10
M  V30 10 1 7 11
M  V30 11 2 8 12
M  V30 12 1 9 13
M  V30 13 1 9 14
M  V30 14 1 10 15
M  V30 15 2 11 16
M  V30 16 2 14 17
M  V30 17 1 14 18
M  V30 18 1 16 19
M  V30 19 1 17 20
M  V30 20 2 18 21
M  V30 21 2 20 22
M  V30 22 1 12 16
M  V30 23 2 13 15
M  V30 24 1 21 22
M  V30 END BOND
M  V30 END CTAB
M  END
>  <Molecule Name>
Molecule-1

>  <status>
DISCONTINUED

>  <cas>
526-08-9

>  <name>
SULFAPHENAZOLE

>  <ID>
1354

>  <Smiles>
Nc(cc1)ccc1S(Nc1ccnn1-c1ccccc1)(=O)=O

$$$$

Actelion Java MolfileCreator 2.0

  0  0  0  0  0  0              0 V3000
M  V30 BEGIN CTAB
M  V30 COUNTS 22 25 0 0 0
M  V30 BEGIN ATOM
M  V30 1 S 3.4641 -1.4999 0.0 0
M  V30 2 C 3.4641 -0.5 0.0 0
M  V30 3 C 2.598 -1.9999 0.0 0
M  V30 4 C 2.598 0.0 0.0 0
M  V30 5 C 4.3301 0.0 0.0 0
M  V30 6 C 1.732 -1.5 0.0 0
M  V30 7 C 2.598 -2.9999 0.0 0
M  V30 8 C 2.598 1.0 0.0 0
M  V30 9 C 1.732 -0.5 0.0 0
M  V30 10 C 4.3301 1.0 0.0 0
M  V30 11 C 0.866 -2.0 0.0 0
M  V30 12 C 1.732 -3.5 0.0 0
M  V30 13 C 3.4641 1.5 0.0 0
M  V30 14 C 0.866 0.0 0.0 0
M  V30 15 C 0.866 -3.0 0.0 0
M  V30 16 C 0.0 -0.5 0.0 0 CFG=2
M  V30 17 C -0.866 0.0 0.0 0
M  V30 18 C 0.0 -1.4999 0.0 0
M  V30 19 N -1.732 -0.4999 0.0 0
M  V30 20 C -0.866 -1.9999 0.0 0
M  V30 21 C -1.732 -1.4999 0.0 0
M  V30 22 C -2.598 0.0 0.0 0
M  V30 END ATOM
M  V30 BEGIN BOND
M  V30 1 1 1 2
M  V30 2 1 1 3
M  V30 3 2 2 4
M  V30 4 1 2 5
M  V30 5 2 3 6
M  V30 6 1 3 7
M  V30 7 1 4 8
M  V30 8 1 4 9
M  V30 9 2 5 10
M  V30 10 1 6 11
M  V30 11 2 7 12
M  V30 12 2 8 13
M  V30 13 1 9 14
M  V30 14 2 11 15
M  V30 15 1 16 14 CFG=1
M  V30 16 1 16 17
M  V30 17 1 16 18
M  V30 18 1 17 19
M  V30 19 1 18 20
M  V30 20 1 19 21
M  V30 21 1 19 22
M  V30 22 1 6 9
M  V30 23 1 10 13
M  V30 24 1 12 15
M  V30 25 1 20 21
M  V30 END BOND
M  V30 BEGIN COLLECTION
M  V30 MDLV30/STERAC1 ATOMS=(1 16)
M  V30 END COLLECTION
M  V30 END CTAB
M  END
>  <Molecule Name>


>  <status>
DISCONTINUED

>  <cas>
4969-02-2

>  <name>
METHIXENE

>  <ID>
1355

>  <Smiles>
CN1CC(CC2c(cccc3)c3Sc3c2cccc3)CCC1

$$$$

Actelion Java MolfileCreator 2.0

  0  0  0  0  0  0              0 V3000
M  V30 BEGIN CTAB
M  V30 COUNTS 22 25 0 0 0
M  V30 BEGIN ATOM
M  V30 1 S 3.4641 -1.4999 0.0 0
M  V30 2 C 3.4641 -0.5 0.0 0
M  V30 3 C 2.598 -1.9999 0.0 0
M  V30 4 C 2.598 0.0 0.0 0
M  V30 5 C 4.3301 0.0 0.0 0
M  V30 6 C 1.732 -1.5 0.0 0
M  V30 7 C 2.598 -2.9999 0.0 0
M  V30 8 C 2.598 1.0 0.0 0
M  V30 9 C 1.732 -0.5 0.0 0
M  V30 10 C 4.3301 1.0 0.0 0
M  V30 11 C 0.866 -2.0 0.0 0
M  V30 12 C 1.732 -3.5 0.0 0
M  V30 13 C 3.4641 1.5 0.0 0
M  V30 14 C 0.866 0.0 0.0 0
M  V30 15 C 0.866 -3.0 0.0 0
M  V30 16 C 0.0 -0.5 0.0 0 CFG=2
M  V30 17 C -0.866 0.0 0.0 0
M  V30 18 C 0.0 -1.4999 0.0 0
M  V30 19 N -1.732 -0.4999 0.0 0
M  V30 20 C -0.866 -1.9999 0.0 0
M  V30 21 C -1.732 -1.4999 0.0 0
M  V30 22 C -2.598 0.0 0.0 0
M  V30 END ATOM
M  V30 BEGIN BOND
M  V30 1 1 1 2
M  V30 2 1 1 3
M  V30 3 2 2 4
M  V30 4 1 2 5
M  V30 5 2 3 6
M  V30 6 1 3 7
M  V30 7 1 4 8
M  V30 8 1 4 9
M  V30 9 2 5 10
M  V30 10 1 6 11
M  V30 11 2 7 12
M  V30 12 2 8 13
M  V30 13 1 9 14
M  V30 14 2 11 15
M  V30 15 1 16 14 CFG=1
M  V30 16 1 16 17
M  V30 17 1 16 18
M  V30 18 1 17 19
M  V30 19 1 18 20
M  V30 20 1 19 21
M  V30 21 1 19 22
M  V30 22 1 6 9
M  V30 23 1 10 13
M  V30 24 1 12 15
M  V30 25 1 20 21
M  V30 END BOND
M  V30 BEGIN COLLECTION
M  V30 MDLV30/STERAC1 ATOMS=(1 16)
M  V30 END COLLECTION
M  V30 END CTAB
M  END
>  <Molecule Name>


>  <status>
DISCONTINUED

>  <cas>
4969-02-2

>  <name>
METHIXENE

>  <ID>
1356

>  <Smiles>
CN1CC(CC2c(cccc3)c3Sc3c2cccc3)CCC1

$$$$
Molecule-1
Actelion Java MolfileCreator 2.0

  0  0  0  0  0  0              0 V3000
M  V30 BEGIN CTAB
M  V30 COUNTS 29 32 0 0 0
M  V30 BEGIN ATOM
M  V30 1 S 7.7942 -2.2499 0.0 0
M  V30 2 C 7.7942 -0.75 0.0 0
M  V30 3 C 6.4951 -2.9999 0.0 0
M  V30 4 C 6.4951 0.0 0.0 0
M  V30 5 C 9.0932 0.0 0.0 0
M  V30 6 C 5.1961 -2.25 0.0 0
M  V30 7 C 6.4951 -4.5 0.0 0
M  V30 8 N 5.1961 -0.75 0.0 0
M  V30 9 C 6.4951 1.5 0.0 0
M  V30 10 C 9.0932 1.5 0.0 0
M  V30 11 C 3.8971 -3.0 0.0 0
M  V30 12 C 5.1961 -5.25 0.0 0
M  V30 13 C 3.8971 0.0 0.0 0
M  V30 14 C 7.7942 2.25 0.0 0
M  V30 15 C 3.8971 -4.5 0.0 0
M  V30 16 C 2.598 -0.75 0.0 0
M  V30 17 C 7.7942 3.75 0.0 0
M  V30 18 C 1.299 0.0 0.0 0
M  V30 19 O 9.0932 4.5 0.0 0
M  V30 20 C 6.4951 4.5 0.0 0
M  V30 21 N 0.0 -0.75 0.0 0
M  V30 22 C -1.299 0.0 0.0 0
M  V30 23 C 0.0 -2.2499 0.0 0
M  V30 24 C -2.598 -0.7499 0.0 0
M  V30 25 C -1.299 -2.9999 0.0 0
M  V30 26 C -2.598 -2.2499 0.0 0
M  V30 27 C -3.8971 -2.9999 0.0 0
M  V30 28 C -5.1961 -2.2499 0.0 0
M  V30 29 O -6.4951 -2.9999 0.0 0
M  V30 END ATOM
M  V30 BEGIN BOND
M  V30 1 1 1 2
M  V30 2 1 1 3
M  V30 3 2 2 4
M  V30 4 1 2 5
M  V30 5 2 3 6
M  V30 6 1 3 7
M  V30 7 1 4 8
M  V30 8 1 4 9
M  V30 9 2 5 10
M  V30 10 1 6 11
M  V30 11 2 7 12
M  V30 12 1 8 13
M  V30 13 2 9 14
M  V30 14 2 11 15
M  V30 15 1 13 16
M  V30 16 1 14 17
M  V30 17 1 16 18
M  V30 18 2 17 19
M  V30 19 1 17 20
M  V30 20 1 18 21
M  V30 21 1 21 22
M  V30 22 1 21 23
M  V30 23 1 22 24
M  V30 24 1 23 25
M  V30 25 1 24 26
M  V30 26 1 26 27
M  V30 27 1 27 28
M  V30 28 1 28 29
M  V30 29 1 6 8
M  V30 30 1 10 14
M  V30 31 1 12 15
M  V30 32 1 25 26
M  V30 END BOND
M  V30 END CTAB
M  END
>  <Molecule Name>
Molecule-1

>  <status>
DISCONTINUED

>  <cas>
3819-00-9

>  <name>
PIPERACETAZINE

>  <ID>
1357

>  <Smiles>
CC(c(cc1)cc2c1Sc(cccc1)c1N2CCCN1CCC(CCO)CC1)=O

$$$$

Actelion Java MolfileCreator 2.0

  0  0  0  0  0  0              0 V3000
M  V30 BEGIN CTAB
M  V30 COUNTS 16 16 0 0 0
M  V30 BEGIN ATOM
M  V30 1 Cl 8.6602 1.4999 0.0 0
M  V30 2 C 7.7942 0.9999 0.0 0
M  V30 3 C 6.9282 1.4999 0.0 0
M  V30 4 C 7.7942 0.0 0.0 0
M  V30 5 C 6.0621 0.9999 0.0 0
M  V30 6 C 6.9282 -0.5 0.0 0
M  V30 7 C 6.0621 0.0 0.0 0
M  V30 8 O 5.1961 -0.5 0.0 0
M  V30 9 C 4.3301 0.0 0.0 0
M  V30 10 C 3.4641 -0.5 0.0 0 CFG=1
M  V30 11 O 3.4641 -1.5 0.0 0
M  V30 12 C 2.598 0.0 0.0 0
M  V30 13 O 1.732 -0.5 0.0 0
M  V30 14 C 0.866 0.0 0.0 0
M  V30 15 O 0.866 1.0 0.0 0
M  V30 16 N 0.0 -0.5 0.0 0
M  V30 END ATOM
M  V30 BEGIN BOND
M  V30 1 1 1 2
M  V30 2 2 2 3
M  V30 3 1 2 4
M  V30 4 1 3 5
M  V30 5 2 4 6
M  V30 6 2 5 7
M  V30 7 1 7 8
M  V30 8 1 8 9
M  V30 9 1 10 9
M  V30 10 1 10 11 CFG=1
M  V30 11 1 10 12
M  V30 12 1 12 13
M  V30 13 1 13 14
M  V30 14 2 14 15
M  V30 15 1 14 16
M  V30 16 1 6 7
M  V30 END BOND
M  V30 BEGIN COLLECTION
M  V30 MDLV30/STERAC1 ATOMS=(1 10)
M  V30 END COLLECTION
M  V30 END CTAB
M  END
>  <Molecule Name>


>  <status>
DISCONTINUED

>  <cas>
886-74-8

>  <name>
CHLORPHENESIN CARBAMATE

>  <ID>
1358

>  <Smiles>
NC(OCC(COc(cc1)ccc1Cl)O)=O

$$$$

Actelion Java MolfileCreator 2.0

  0  0  0  0  0  0              0 V3000
M  V30 BEGIN CTAB
M  V30 COUNTS 16 16 0 0 0
M  V30 BEGIN ATOM
M  V30 1 Cl 8.6602 1.4999 0.0 0
M  V30 2 C 7.7942 0.9999 0.0 0
M  V30 3 C 6.9282 1.4999 0.0 0
M  V30 4 C 7.7942 0.0 0.0 0
M  V30 5 C 6.0621 0.9999 0.0 0
M  V30 6 C 6.9282 -0.5 0.0 0
M  V30 7 C 6.0621 0.0 0.0 0
M  V30 8 O 5.1961 -0.5 0.0 0
M  V30 9 C 4.3301 0.0 0.0 0
M  V30 10 C 3.4641 -0.5 0.0 0 CFG=1
M  V30 11 O 3.4641 -1.5 0.0 0
M  V30 12 C 2.598 0.0 0.0 0
M  V30 13 O 1.732 -0.5 0.0 0
M  V30 14 C 0.866 0.0 0.0 0
M  V30 15 O 0.866 1.0 0.0 0
M  V30 16 N 0.0 -0.5 0.0 0
M  V30 END ATOM
M  V30 BEGIN BOND
M  V30 1 1 1 2
M  V30 2 2 2 3
M  V30 3 1 2 4
M  V30 4 1 3 5
M  V30 5 2 4 6
M  V30 6 2 5 7
M  V30 7 1 7 8
M  V30 8 1 8 9
M  V30 9 1 10 9
M  V30 10 1 10 11 CFG=1
M  V30 11 1 10 12
M  V30 12 1 12 13
M  V30 13 1 13 14
M  V30 14 2 14 15
M  V30 15 1 14 16
M  V30 16 1 6 7
M  V30 END BOND
M  V30 BEGIN COLLECTION
M  V30 MDLV30/STERAC1 ATOMS=(1 10)
M  V30 END COLLECTION
M  V30 END CTAB
M  END
>  <Molecule Name>


>  <status>
DISCONTINUED

>  <cas>
886-74-8

>  <name>
CHLORPHENESIN CARBAMATE

>  <ID>
1359

>  <Smiles>
NC(OCC(COc(cc1)ccc1Cl)O)=O

$$$$

Actelion Java MolfileCreator 2.0

  0  0  0  0  0  0              0 V3000
M  V30 BEGIN CTAB
M  V30 COUNTS 23 25 0 0 0
M  V30 BEGIN ATOM
M  V30 1 S 6.0621 0.9999 0.0 0
M  V30 2 C 5.1961 1.4999 0.0 0
M  V30 3 C 6.0621 0.0 0.0 0
M  V30 4 C 4.3301 0.9999 0.0 0
M  V30 5 C 5.1961 2.4999 0.0 0
M  V30 6 C 5.1961 -0.5 0.0 0
M  V30 7 C 6.9282 -0.4999 0.0 0
M  V30 8 N 4.3301 0.0 0.0 0
M  V30 9 C 3.4641 1.5 0.0 0
M  V30 10 C 4.3301 2.9999 0.0 0
M  V30 11 C 5.1961 -1.5 0.0 0
M  V30 12 C 6.9282 -1.4999 0.0 0
M  V30 13 C 3.4641 -0.5 0.0 0
M  V30 14 C 3.4641 2.5 0.0 0
M  V30 15 C 6.0621 -1.9999 0.0 0
M  V30 16 C 2.598 0.0 0.0 0 CFG=2
M  V30 17 O 2.598 2.9999 0.0 0
M  V30 18 C 1.732 -0.5 0.0 0
M  V30 19 C 2.598 1.0 0.0 0
M  V30 20 C 1.732 2.5 0.0 0
M  V30 21 N 0.866 0.0 0.0 0
M  V30 22 C 0.866 1.0 0.0 0
M  V30 23 C 0.0 -0.5 0.0 0
M  V30 END ATOM
M  V30 BEGIN BOND
M  V30 1 1 1 2
M  V30 2 1 1 3
M  V30 3 2 2 4
M  V30 4 1 2 5
M  V30 5 2 3 6
M  V30 6 1 3 7
M  V30 7 1 4 8
M  V30 8 1 4 9
M  V30 9 2 5 10
M  V30 10 1 6 11
M  V30 11 2 7 12
M  V30 12 1 8 13
M  V30 13 2 9 14
M  V30 14 2 11 15
M  V30 15 1 16 13
M  V30 16 1 14 17
M  V30 17 1 16 18
M  V30 18 1 16 19 CFG=3
M  V30 19 1 17 20
M  V30 20 1 18 21
M  V30 21 1 21 22
M  V30 22 1 21 23
M  V30 23 1 6 8
M  V30 24 1 10 14
M  V30 25 1 12 15
M  V30 END BOND
M  V30 BEGIN COLLECTION
M  V30 MDLV30/STERAC1 ATOMS=(1 16)
M  V30 END COLLECTION
M  V30 END CTAB
M  END
>  <Molecule Name>


>  <status>
DISCONTINUED

>  <cas>
60-99-1

>  <name>
LEVOMEPROMAZINE

>  <ID>
1360

>  <Smiles>
CC(CN(C)C)CN1c(cc(cc2)OC)c2Sc2c1cccc2

$$$$
Molecule-1
Actelion Java MolfileCreator 2.0

  0  0  0  0  0  0              0 V3000
M  V30 BEGIN CTAB
M  V30 COUNTS 31 33 0 0 0
M  V30 BEGIN ATOM
M  V30 1 Cl 6.0621 4.9999 0.0 0
M  V30 2 C 6.0621 3.9999 0.0 0
M  V30 3 C 5.1961 3.4999 0.0 0
M  V30 4 C 6.9282 3.4999 0.0 0
M  V30 5 C 5.1961 2.4999 0.0 0
M  V30 6 C 6.9282 2.4999 0.0 0
M  V30 7 C 6.0621 1.9999 0.0 0
M  V30 8 C 6.0621 0.9999 0.0 0
M  V30 9 O 6.9282 1.4999 0.0 0
M  V30 10 C 5.1961 1.4999 0.0 0
M  V30 11 C 6.0621 0.0 0.0 0
M  V30 12 C 7.7942 0.9999 0.0 0
M  V30 13 C 4.3301 0.9999 0.0 0
M  V30 14 C 5.1961 -0.5 0.0 0
M  V30 15 O 7.7942 0.0 0.0 0
M  V30 16 C 8.6602 1.4999 0.0 0 CFG=1
M  V30 17 N 4.3301 0.0 0.0 0
M  V30 18 O 9.5262 0.9999 0.0 0
M  V30 19 C 8.6602 2.4999 0.0 0
M  V30 20 C 3.4641 -0.5 0.0 0
M  V30 21 C 2.598 0.0 0.0 0
M  V30 22 C 1.732 -0.5 0.0 0
M  V30 23 C 0.866 0.0 0.0 0
M  V30 24 O 0.866 1.0 0.0 0
M  V30 25 C 0.0 -0.5 0.0 0
M  V30 26 C -0.866 0.0 0.0 0
M  V30 27 C 0.0 -1.4999 0.0 0
M  V30 28 C -1.732 -0.4999 0.0 0
M  V30 29 C -0.866 -1.9999 0.0 0
M  V30 30 C -1.732 -1.4999 0.0 0
M  V30 31 F -2.598 -1.9999 0.0 0
M  V30 END ATOM
M  V30 BEGIN BOND
M  V30 1 1 1 2
M  V30 2 2 2 3
M  V30 3 1 2 4
M  V30 4 1 3 5
M  V30 5 2 4 6
M  V30 6 2 5 7
M  V30 7 1 7 8
M  V30 8 1 8 9
M  V30 9 1 8 10
M  V30 10 1 8 11
M  V30 11 1 9 12
M  V30 12 1 10 13
M  V30 13 1 11 14
M  V30 14 2 12 15
M  V30 15 1 16 12
M  V30 16 1 13 17
M  V30 17 1 16 18 CFG=3
M  V30 18 1 16 19
M  V30 19 1 17 20
M  V30 20 1 20 21
M  V30 21 1 21 22
M  V30 22 1 22 23
M  V30 23 2 23 24
M  V30 24 1 23 25
M  V30 25 2 25 26
M  V30 26 1 25 27
M  V30 27 1 26 28
M  V30 28 2 27 29
M  V30 29 2 28 30
M  V30 30 1 30 31
M  V30 31 1 6 7
M  V30 32 1 14 17
M  V30 33 1 29 30
M  V30 END BOND
M  V30 BEGIN COLLECTION
M  V30 MDLV30/STERAC1 ATOMS=(1 16)
M  V30 END COLLECTION
M  V30 END CTAB
M  END
>  <Molecule Name>
Molecule-1

>  <status>
-

>  <cas>
75478-79-4

>  <name>
HALOPERIDOL LACTATE

>  <ID>
1361

>  <Smiles>
CC(C(OC1(CCN(CCCC(c(cc2)ccc2F)=O)CC1)c(cc1)ccc1Cl)=O)O

$$$$
Molecule-1
Actelion Java MolfileCreator 2.0

  0  0  0  0  0  0              0 V3000
M  V30 BEGIN CTAB
M  V30 COUNTS 37 39 0 0 0
M  V30 BEGIN ATOM
M  V30 1 Cl 3.4641 -2.5 0.0 0
M  V30 2 C 2.598 -2.0 0.0 0
M  V30 3 C 2.598 -1.0 0.0 0
M  V30 4 C 1.732 -2.5 0.0 0
M  V30 5 C 1.732 -0.5 0.0 0
M  V30 6 C 0.866 -2.0 0.0 0
M  V30 7 C 0.866 -1.0 0.0 0
M  V30 8 C 0.0 -0.5 0.0 0
M  V30 9 O 0.866 0.0 0.0 0
M  V30 10 C -0.866 0.0 0.0 0
M  V30 11 C 0.0 -1.4999 0.0 0
M  V30 12 C 0.866 0.9999 0.0 0
M  V30 13 C -1.732 -0.4999 0.0 0
M  V30 14 C -0.866 -1.9999 0.0 0
M  V30 15 O 0.0 1.5 0.0 0
M  V30 16 C 1.732 1.4999 0.0 0
M  V30 17 N -1.732 -1.4999 0.0 0
M  V30 18 C 1.732 2.4999 0.0 0
M  V30 19 C -2.598 -1.9999 0.0 0
M  V30 20 C 2.598 3.0 0.0 0
M  V30 21 C -3.4641 -1.4999 0.0 0
M  V30 22 C 2.598 3.9999 0.0 0
M  V30 23 C -4.3301 -1.9999 0.0 0
M  V30 24 C 3.4641 4.4999 0.0 0
M  V30 25 C -5.1961 -1.4999 0.0 0
M  V30 26 C 3.4641 5.4999 0.0 0
M  V30 27 O -5.1961 -0.4999 0.0 0
M  V30 28 C -6.0621 -1.9999 0.0 0
M  V30 29 C 4.3301 5.9999 0.0 0
M  V30 30 C -6.9282 -1.5 0.0 0
M  V30 31 C -6.0621 -2.9999 0.0 0
M  V30 32 C 4.3301 6.9999 0.0 0
M  V30 33 C -7.7942 -2.0 0.0 0
M  V30 34 C -6.9282 -3.5 0.0 0
M  V30 35 C 5.1961 7.5 0.0 0
M  V30 36 C -7.7942 -3.0 0.0 0
M  V30 37 F -8.6602 -3.5 0.0 0
M  V30 END ATOM
M  V30 BEGIN BOND
M  V30 1 1 1 2
M  V30 2 2 2 3
M  V30 3 1 2 4
M  V30 4 1 3 5
M  V30 5 2 4 6
M  V30 6 2 5 7
M  V30 7 1 7 8
M  V30 8 1 8 9
M  V30 9 1 8 10
M  V30 10 1 8 11
M  V30 11 1 9 12
M  V30 12 1 10 13
M  V30 13 1 11 14
M  V30 14 2 12 15
M  V30 15 1 12 16
M  V30 16 1 13 17
M  V30 17 1 16 18
M  V30 18 1 17 19
M  V30 19 1 18 20
M  V30 20 1 19 21
M  V30 21 1 20 22
M  V30 22 1 21 23
M  V30 23 1 22 24
M  V30 24 1 23 25
M  V30 25 1 24 26
M  V30 26 2 25 27
M  V30 27 1 25 28
M  V30 28 1 26 29
M  V30 29 2 28 30
M  V30 30 1 28 31
M  V30 31 1 29 32
M  V30 32 1 30 33
M  V30 33 2 31 34
M  V30 34 1 32 35
M  V30 35 2 33 36
M  V30 36 1 36 37
M  V30 37 1 6 7
M  V30 38 1 14 17
M  V30 39 1 34 36
M  V30 END BOND
M  V30 END CTAB
M  END
>  <Molecule Name>
Molecule-1

>  <status>
-

>  <cas>
74050-97-8

>  <name>
HALOPERIDOL DECANOATE

>  <ID>
1362

>  <Smiles>
CCCCCCCCCC(OC1(CCN(CCCC(c(cc2)ccc2F)=O)CC1)c(cc1)ccc1Cl)=O

$$$$

Actelion Java MolfileCreator 2.0

  0  0  0  0  0  0              0 V3000
M  V30 BEGIN CTAB
M  V30 COUNTS 27 30 0 0 0
M  V30 BEGIN ATOM
M  V30 1 O 9.8602 -9.8463 0.0 0
M  V30 2 C 8.8538 -8.7286 0.0 0
M  V30 3 C 7.3826 -9.0413 0.0 0
M  V30 4 C 9.3185 -7.2982 0.0 0
M  V30 5 C 6.3762 -7.9236 0.0 0
M  V30 6 C 8.3121 -6.1805 0.0 0
M  V30 7 C 6.841 -6.4932 0.0 0 CFG=2
M  V30 8 C 4.905 -8.2363 0.0 0
M  V30 9 C 5.8346 -5.3755 0.0 0 CFG=1
M  V30 10 C 7.3058 -5.0628 0.0 0
M  V30 11 C 3.8987 -7.1186 0.0 0
M  V30 12 C 6.2994 -3.9451 0.0 0
M  V30 13 C 4.3634 -5.6882 0.0 0 CFG=1
M  V30 14 O 7.7705 -3.6323 0.0 0
M  V30 15 C 5.293 -2.8273 0.0 0
M  V30 16 C 3.357 -4.5705 0.0 0 CFG=1
M  V30 17 C 3.8218 -3.14 0.0 0 CFG=1
M  V30 18 C 1.853 -4.5705 0.0 0
M  V30 19 C 2.605 -2.256 0.0 0 CFG=1
M  V30 20 C 4.3754 -1.7906 0.0 0
M  V30 21 C 1.3882 -3.14 0.0 0 CFG=1
M  V30 22 O 3.8247 -1.5123 0.0 0
M  V30 23 C 2.605 -0.752 0.0 0
M  V30 24 C -0.0421 -2.6753 0.0 0
M  V30 25 O 3.9075 0.0 0.0 0
M  V30 26 C 1.3025 0.0 0.0 0
M  V30 27 O 0.0 -0.752 0.0 0
M  V30 END ATOM
M  V30 BEGIN BOND
M  V30 1 2 1 2
M  V30 2 1 2 3
M  V30 3 1 2 4
M  V30 4 2 3 5
M  V30 5 2 4 6
M  V30 6 1 7 5
M  V30 7 1 5 8
M  V30 8 1 9 7
M  V30 9 1 7 10 CFG=3
M  V30 10 1 8 11
M  V30 11 1 9 12 CFG=3
M  V30 12 1 13 9
M  V30 13 2 12 14
M  V30 14 1 12 15
M  V30 15 1 16 13
M  V30 16 1 17 15
M  V30 17 1 16 18 CFG=3
M  V30 18 1 19 17
M  V30 19 1 17 20 CFG=3
M  V30 20 1 21 18
M  V30 21 1 19 22 CFG=1
M  V30 22 1 19 23
M  V30 23 1 21 24 CFG=3
M  V30 24 2 23 25
M  V30 25 1 23 26
M  V30 26 1 26 27
M  V30 27 1 6 7
M  V30 28 1 13 11 CFG=1
M  V30 29 1 16 17
M  V30 30 1 19 21
M  V30 END BOND
M  V30 BEGIN COLLECTION
M  V30 MDLV30/STERAC1 ATOMS=(7 7 9 13 16 17 19 21)
M  V30 END COLLECTION
M  V30 END CTAB
M  END
>  <Molecule Name>


>  <status>
DISCONTINUED

>  <cas>
1247-42-3

>  <name>
MEPREDNISONE

>  <ID>
1363

>  <Smiles>
C[C@@H](C[C@@H]([C@H](CC1)[C@H]2[C@@](C)(C=C3)C1=CC3=O)[C@]1(C)CC2=O)[C@@]1(C(CO)=O)O

$$$$
_c001
Actelion Java MolfileCreator 2.0

  0  0  0  0  0  0              0 V3000
M  V30 BEGIN CTAB
M  V30 COUNTS 19 19 0 0 0
M  V30 BEGIN ATOM
M  V30 1 Cl 2.598 -1.9999 0.0 0
M  V30 2 C 3.4641 -1.4999 0.0 0
M  V30 3 C 4.3301 -1.9999 0.0 0
M  V30 4 C 3.4641 -0.5 0.0 0
M  V30 5 Cl 4.3301 -2.9999 0.0 0
M  V30 6 C 5.1961 -1.4999 0.0 0
M  V30 7 O 2.598 0.0 0.0 0
M  V30 8 C 4.3301 0.0 0.0 0
M  V30 9 C 6.0621 -1.9999 0.0 0
M  V30 10 C 5.1961 -0.4999 0.0 0
M  V30 11 C 1.732 -0.5 0.0 0
M  V30 12 O 6.0621 -2.9999 0.0 0
M  V30 13 C 6.9282 -1.4999 0.0 0
M  V30 14 C 0.866 0.0 0.0 0
M  V30 15 C 6.9282 -0.4999 0.0 0
M  V30 16 C 7.7942 -1.9999 0.0 0
M  V30 17 O 0.866 1.0 0.0 0
M  V30 18 O 0.0 -0.5 0.0 0 CHG=-1
M  V30 19 C 8.6602 -1.4999 0.0 0
M  V30 END ATOM
M  V30 BEGIN BOND
M  V30 1 1 1 2
M  V30 2 2 2 3
M  V30 3 1 2 4
M  V30 4 1 3 5
M  V30 5 1 3 6
M  V30 6 1 4 7
M  V30 7 2 4 8
M  V30 8 1 6 9
M  V30 9 2 6 10
M  V30 10 1 7 11
M  V30 11 2 9 12
M  V30 12 1 9 13
M  V30 13 1 11 14
M  V30 14 2 13 15
M  V30 15 1 13 16
M  V30 16 2 14 17
M  V30 17 1 14 18
M  V30 18 1 16 19
M  V30 19 1 8 10
M  V30 END BOND
M  V30 END CTAB
M  END
>  <Molecule Name>
_c001

>  <status>
-

>  <cas>
6463-21-4

>  <name>
ETHACRYNATE

>  <ID>
1364

>  <Smiles>
CCC(C(c(c(Cl)c1Cl)ccc1OCC([O-])=O)=O)=C

$$$$
Molecule-1
Actelion Java MolfileCreator 2.0

  0  0  0  0  0  0              0 V3000
M  V30 BEGIN CTAB
M  V30 COUNTS 10 12 0 0 0
M  V30 BEGIN ATOM
M  V30 1 N -0.0942 0.006 0.0 0
M  V30 2 C -0.0428 1.0652 0.0 0
M  V30 3 C 1.0761 -0.3162 0.0 0
M  V30 4 C -0.6397 -0.7694 0.0 0
M  V30 5 N 0.8213 1.4005 0.0 0
M  V30 6 N 1.8069 -0.0259 0.0 0
M  V30 7 N 0.2594 -0.5089 0.0 0
M  V30 8 C 1.8242 1.072 0.0 0
M  V30 9 C 0.36 0.7554 0.0 0
M  V30 10 C 1.2298 -0.7846 0.0 0
M  V30 END ATOM
M  V30 BEGIN BOND
M  V30 1 1 1 2
M  V30 2 1 1 3
M  V30 3 1 1 4
M  V30 4 1 2 5
M  V30 5 1 3 6
M  V30 6 1 4 7
M  V30 7 1 5 8
M  V30 8 1 5 9
M  V30 9 1 6 10
M  V30 10 1 6 8
M  V30 11 1 7 9
M  V30 12 1 7 10
M  V30 END BOND
M  V30 END CTAB
M  END
>  <Molecule Name>
Molecule-1

>  <status>
-

>  <cas>
100-97-0

>  <name>
METHENAMINE

>  <ID>
1365

>  <Smiles>
C(N(C1)C2)N3CN2CN1C3

$$$$
Molecule-1
Actelion Java MolfileCreator 2.0

  0  0  0  0  0  0              0 V3000
M  V30 BEGIN CTAB
M  V30 COUNTS 13 13 0 0 0
M  V30 BEGIN ATOM
M  V30 1 O 6.4951 0.0 0.0 0
M  V30 2 C 5.1961 -0.75 0.0 0
M  V30 3 N 3.8971 0.0 0.0 0
M  V30 4 C 5.1961 -2.25 0.0 0
M  V30 5 C 2.598 -0.75 0.0 0
M  V30 6 C 3.8971 -2.9999 0.0 0
M  V30 7 C 6.4951 -3.0 0.0 0
M  V30 8 C 1.299 0.0 0.0 0
M  V30 9 C 3.8971 -4.5 0.0 0
M  V30 10 C 6.4951 -4.5 0.0 0
M  V30 11 O 1.299 1.5 0.0 0
M  V30 12 O 0.0 -0.75 0.0 0 CHG=-1
M  V30 13 C 5.1961 -5.25 0.0 0
M  V30 END ATOM
M  V30 BEGIN BOND
M  V30 1 2 1 2
M  V30 2 1 2 3
M  V30 3 1 2 4
M  V30 4 1 3 5
M  V30 5 2 4 6
M  V30 6 1 4 7
M  V30 7 1 5 8
M  V30 8 1 6 9
M  V30 9 2 7 10
M  V30 10 2 8 11
M  V30 11 1 8 12
M  V30 12 2 9 13
M  V30 13 1 10 13
M  V30 END BOND
M  V30 END CTAB
M  END
>  <Molecule Name>
Molecule-1

>  <status>
-

>  <cas>
495-69-2

>  <name>
HIPPURATE

>  <ID>
1366

>  <Smiles>
[O-]C(CNC(c1ccccc1)=O)=O

$$$$
_c001
Actelion Java MolfileCreator 2.0

  0  0  0  0  0  0              0 V3000
M  V30 BEGIN CTAB
M  V30 COUNTS 73 76 0 0 0
M  V30 BEGIN ATOM
M  V30 1 S 0.8752 2.7804 0.0 0
M  V30 2 S 2.3033 3.2444 0.0 0
M  V30 3 C 0.563 1.3117 0.0 0
M  V30 4 C 2.6155 4.7132 0.0 0
M  V30 5 C 1.6789 0.3069 0.0 0 CFG=2
M  V30 6 C 3.8131 5.162 0.0 0 CFG=2
M  V30 7 N 1.3667 -1.1617 0.0 0
M  V30 8 C 3.0621 0.7797 0.0 0
M  V30 9 N 4.2334 6.5468 0.0 0
M  V30 10 C 5.1594 4.1725 0.0 0
M  V30 11 O 3.3056 2.5139 0.0 0
M  V30 12 N 4.2229 -0.2337 0.0 0
M  V30 13 C 5.8613 7.0528 0.0 0
M  V30 14 O 6.2172 4.6982 0.0 0
M  V30 15 N 4.6512 2.6626 0.0 0
M  V30 16 C 5.7018 0.2052 0.0 0 CFG=2
M  V30 17 O 6.8158 5.7496 0.0 0
M  V30 18 C 6.2755 8.4533 0.0 0 CFG=1
M  V30 19 C 5.6961 1.521 0.0 0 CFG=2
M  V30 20 C 3.741 2.0627 0.0 0
M  V30 21 C 6.0917 1.9469 0.0 0
M  V30 22 C 6.7668 -0.7744 0.0 0
M  V30 23 N 7.7271 9.125 0.0 0
M  V30 24 C 4.9801 9.5835 0.0 0
M  V30 25 C 7.3616 1.6548 0.0 0
M  V30 26 C 5.0084 0.3777 0.0 0
M  V30 27 C 3.754 0.6444 0.0 0
M  V30 28 O 5.19 2.7755 0.0 0
M  V30 29 N 7.3161 2.3191 0.0 0
M  V30 30 C 6.4546 -2.2432 0.0 0
M  V30 31 C 8.8795 7.8698 0.0 0
M  V30 32 C 5.2923 11.0522 0.0 0
M  V30 33 O 8.0467 3.0498 0.0 0
M  V30 34 N 8.2279 0.53 0.0 0
M  V30 35 C 7.6843 3.6641 0.0 0 CFG=1
M  V30 36 C 7.5705 -3.2479 0.0 0
M  V30 37 C 5.0266 -2.7072 0.0 0
M  V30 38 O 10.0681 8.502 0.0 0
M  V30 39 C 8.4331 6.2798 0.0 0 CFG=1
M  V30 40 O 6.7204 11.5162 0.0 0
M  V30 41 N 4.1765 12.0569 0.0 0
M  V30 42 C 9.7213 0.6869 0.0 0 CFG=2
M  V30 43 C 9.1315 4.0957 0.0 0
M  V30 44 C 6.7727 4.6056 0.0 0
M  V30 45 C 7.2583 -4.7167 0.0 0
M  V30 46 C 4.7144 -4.176 0.0 0
M  V30 47 N 9.4437 5.5645 0.0 0
M  V30 48 C 6.9853 6.2734 0.0 0
M  V30 49 C 10.6039 -0.5278 0.0 0
M  V30 50 C 10.332 2.0587 0.0 0
M  V30 51 O 10.2474 3.091 0.0 0
M  V30 52 C 6.8783 5.9848 0.0 0
M  V30 53 C 5.8302 -5.1807 0.0 0
M  V30 54 C 5.8125 7.4402 0.0 0
M  V30 55 O 9.9931 -1.8995 0.0 0
M  V30 56 N 12.0972 -0.3708 0.0 0
M  V30 57 C 11.8254 2.2156 0.0 0
M  V30 58 C 5.5857 6.8799 0.0 0
M  V30 59 C 8.2974 6.6981 0.0 0
M  V30 60 O 5.518 -6.6494 0.0 0
M  V30 61 C 4.4113 6.9037 0.0 0
M  V30 62 C 12.9798 -1.5856 0.0 0
M  V30 63 C 12.4361 3.5874 0.0 0
M  V30 64 C 5.7861 8.4855 0.0 0
M  V30 65 C 8.5783 8.1497 0.0 0
M  V30 66 O 4.3319 5.1962 0.0 0
M  V30 67 N 3.2399 7.6507 0.0 0
M  V30 68 C 14.4731 -1.4286 0.0 0
M  V30 69 C 13.9294 3.7443 0.0 0
M  V30 70 C 7.2525 9.2106 0.0 0
M  V30 71 O 15.3557 -2.6434 0.0 0
M  V30 72 N 15.0839 -0.0569 0.0 0
M  V30 73 N 14.5402 5.1161 0.0 0
M  V30 END ATOM
M  V30 BEGIN BOND
M  V30 1 1 1 2
M  V30 2 1 1 3
M  V30 3 1 2 4
M  V30 4 1 5 3
M  V30 5 1 6 4
M  V30 6 1 5 7 CFG=1
M  V30 7 1 5 8
M  V30 8 1 6 9
M  V30 9 1 6 10 CFG=3
M  V30 10 2 8 11
M  V30 11 1 8 12
M  V30 12 1 9 13
M  V30 13 2 10 14
M  V30 14 1 10 15
M  V30 15 1 16 12
M  V30 16 2 13 17
M  V30 17 1 18 13
M  V30 18 1 19 15
M  V30 19 1 15 20
M  V30 20 1 16 21
M  V30 21 1 16 22 CFG=3
M  V30 22 1 18 23
M  V30 23 1 18 24 CFG=3
M  V30 24 1 19 25 CFG=3
M  V30 25 1 19 26
M  V30 26 1 20 27
M  V30 27 2 21 28
M  V30 28 1 21 29
M  V30 29 1 22 30
M  V30 30 1 23 31
M  V30 31 1 24 32
M  V30 32 2 25 33
M  V30 33 1 25 34
M  V30 34 1 35 29
M  V30 35 2 30 36
M  V30 36 1 30 37
M  V30 37 2 31 38
M  V30 38 1 39 31
M  V30 39 2 32 40
M  V30 40 1 32 41
M  V30 41 1 42 34 CFG=1
M  V30 42 1 35 43
M  V30 43 1 35 44 CFG=3
M  V30 44 1 36 45
M  V30 45 2 37 46
M  V30 46 1 39 47
M  V30 47 1 39 48 CFG=1
M  V30 48 1 42 49
M  V30 49 1 42 50
M  V30 50 2 43 51
M  V30 51 1 44 52
M  V30 52 2 45 53
M  V30 53 1 48 54
M  V30 54 2 49 55
M  V30 55 1 49 56
M  V30 56 1 50 57
M  V30 57 2 52 58
M  V30 58 1 52 59
M  V30 59 1 53 60
M  V30 60 1 54 61
M  V30 61 1 56 62
M  V30 62 1 57 63
M  V30 63 1 58 64
M  V30 64 2 59 65
M  V30 65 2 61 66
M  V30 66 1 61 67
M  V30 67 1 62 68
M  V30 68 1 63 69
M  V30 69 2 64 70
M  V30 70 2 68 71
M  V30 71 1 68 72
M  V30 72 1 69 73
M  V30 73 1 26 27
M  V30 74 1 43 47
M  V30 75 1 46 53
M  V30 76 1 65 70
M  V30 END BOND
M  V30 BEGIN COLLECTION
M  V30 MDLV30/STERAC1 ATOMS=(8 5 6 16 18 19 35 39 42)
M  V30 END COLLECTION
M  V30 END CTAB
M  END
>  <Molecule Name>
_c001

>  <status>
DISCONTINUED

>  <cas>
50-57-7

>  <name>
LYPRESSIN

>  <ID>
1367

>  <Smiles>
NCCCC[C@@H](C(NCC(N)=O)=O)NC([C@H](CCC1)N1C([C@H](CSSC[C@@H](C(N[C@@H](Cc(cc1)ccc1O)C(N[C@H](Cc1ccccc1)C(N[C@@H](CCC(N)=O)C(N[C@H]1CC(N)=O)=O)=O)=O)=O)N)NC1=O)=O)=O

$$$$

Actelion Java MolfileCreator 2.0

  0  0  0  0  0  0              0 V3000
M  V30 BEGIN CTAB
M  V30 COUNTS 10 9 0 0 0
M  V30 BEGIN ATOM
M  V30 1 Cl 2.098 0.866 0.0 0
M  V30 2 C 2.598 0.0 0.0 0
M  V30 3 Cl 3.4641 0.5 0.0 0
M  V30 4 Cl 3.098 -0.866 0.0 0
M  V30 5 C 1.732 -0.5 0.0 0
M  V30 6 O 0.866 0.0 0.0 0
M  V30 7 P 0.0 -0.5 0.0 0
M  V30 8 O -0.4999 0.366 0.0 0
M  V30 9 O -0.866 -0.9999 0.0 0 CHG=-1
M  V30 10 O 0.4999 -1.366 0.0 0 CHG=-1
M  V30 END ATOM
M  V30 BEGIN BOND
M  V30 1 1 1 2
M  V30 2 1 2 3
M  V30 3 1 2 4
M  V30 4 1 2 5
M  V30 5 1 5 6
M  V30 6 1 6 7
M  V30 7 2 7 8
M  V30 8 1 7 9
M  V30 9 1 7 10
M  V30 END BOND
M  V30 END CTAB
M  END
>  <Molecule Name>


>  <status>
DISCONTINUED

>  <cas>
306-52-5

>  <name>
TRICLOFOS

>  <ID>
1368

>  <Smiles>
[O-]P([O-])(OCC(Cl)(Cl)Cl)=O

$$$$

Actelion Java MolfileCreator 2.0

  0  0  0  0  0  0              0 V3000
M  V30 BEGIN CTAB
M  V30 COUNTS 24 27 0 0 0
M  V30 BEGIN ATOM
M  V30 1 O 3.8971 1.5 0.0 0
M  V30 2 C 3.8971 0.0 0.0 0
M  V30 3 C 2.598 -0.75 0.0 0
M  V30 4 C 5.1961 -0.75 0.0 0
M  V30 5 C 1.299 0.0 0.0 0
M  V30 6 C 2.598 -2.25 0.0 0
M  V30 7 C 5.1961 -2.25 0.0 0 CFG=1
M  V30 8 O 1.299 1.5 0.0 0
M  V30 9 C 3.8971 -3.0 0.0 0 CFG=1
M  V30 10 C 6.4952 -3.0 0.0 0
M  V30 11 C 3.8971 -4.5 0.0 0 CFG=2
M  V30 12 C 2.598 -3.75 0.0 0
M  V30 13 C 6.4952 -4.5 0.0 0
M  V30 14 C 5.1961 -5.25 0.0 0 CFG=1
M  V30 15 C 2.598 -5.25 0.0 0
M  V30 16 C 5.1961 -6.75 0.0 0 CFG=1
M  V30 17 C 2.598 -6.75 0.0 0
M  V30 18 C 3.8971 -7.5 0.0 0 CFG=2
M  V30 19 C 6.3108 -7.7537 0.0 0
M  V30 20 C 4.2089 -8.9672 0.0 0 CFG=2
M  V30 21 C 2.6835 -8.3816 0.0 0
M  V30 22 C 5.7007 -9.124 0.0 0
M  V30 23 O 2.7824 -9.4307 0.0 0
M  V30 24 C 3.8971 -10.4344 0.0 0
M  V30 END ATOM
M  V30 BEGIN BOND
M  V30 1 2 1 2
M  V30 2 1 2 3
M  V30 3 1 2 4
M  V30 4 2 3 5
M  V30 5 1 3 6
M  V30 6 1 7 4 CFG=3
M  V30 7 1 5 8
M  V30 8 1 9 6
M  V30 9 1 7 10
M  V30 10 1 11 9
M  V30 11 1 9 12 CFG=3
M  V30 12 1 10 13
M  V30 13 1 14 11
M  V30 14 1 11 15 CFG=3
M  V30 15 1 16 14
M  V30 16 1 15 17
M  V30 17 1 18 16
M  V30 18 1 16 19 CFG=3
M  V30 19 1 20 18
M  V30 20 1 18 21 CFG=3
M  V30 21 1 19 22
M  V30 22 1 20 23 CFG=3
M  V30 23 1 20 24
M  V30 24 1 7 9
M  V30 25 1 14 13 CFG=1
M  V30 26 1 17 18
M  V30 27 1 20 22
M  V30 END BOND
M  V30 BEGIN COLLECTION
M  V30 MDLV30/STERAC1 ATOMS=(7 7 9 11 14 16 18 20)
M  V30 END COLLECTION
M  V30 END CTAB
M  END
>  <Molecule Name>


>  <status>
DISCONTINUED

>  <cas>
434-07-1

>  <name>
OXYMETHOLONE

>  <ID>
1369

>  <Smiles>
C[C@](CC1)([C@@](C)(CC2)[C@@H]1[C@H](CC1)[C@H]2[C@@](C)(C/C2=C/O)[C@@H]1CC2=O)O

$$$$

Actelion Java MolfileCreator 2.0

  0  0  0  0  0  0              0 V3000
M  V30 BEGIN CTAB
M  V30 COUNTS 37 38 0 0 0
M  V30 BEGIN ATOM
M  V30 1 O 31.1769 2.25 0.0 0
M  V30 2 C 29.8779 1.5 0.0 0
M  V30 3 C 31.1769 3.75 0.0 0
M  V30 4 C 28.5788 2.25 0.0 0
M  V30 5 C 29.8779 0.0 0.0 0
M  V30 6 C 27.2798 1.5 0.0 0
M  V30 7 C 28.5788 -0.75 0.0 0
M  V30 8 C 27.2798 0.0 0.0 0
M  V30 9 C 25.9807 -0.75 0.0 0
M  V30 10 N 24.6817 0.0 0.0 0
M  V30 11 C 24.6817 1.5 0.0 0
M  V30 12 C 23.3827 -0.75 0.0 0
M  V30 13 N 25.9807 2.25 0.0 0
M  V30 14 N 23.3827 2.25 0.0 0
M  V30 15 C 22.0836 0.0 0.0 0
M  V30 16 C 25.9807 3.75 0.0 0
M  V30 17 C 23.3827 3.75 0.0 0
M  V30 18 N 20.7846 -0.75 0.0 0 CHG=1
M  V30 19 C 24.6817 4.5 0.0 0
M  V30 20 C 19.4855 0.0 0.0 0
M  V30 21 C 20.0346 -2.049 0.0 0
M  V30 22 C 21.5346 -2.049 0.0 0
M  V30 23 C 18.1865 -0.75 0.0 0
M  V30 24 C 16.8875 0.0 0.0 0
M  V30 25 C 15.5884 -0.75 0.0 0
M  V30 26 C 14.2894 0.0 0.0 0
M  V30 27 C 12.9903 -0.75 0.0 0
M  V30 28 C 11.6913 0.0 0.0 0
M  V30 29 C 10.3923 -0.75 0.0 0
M  V30 30 C 9.0932 0.0 0.0 0
M  V30 31 C 7.7942 -0.75 0.0 0
M  V30 32 C 6.4951 0.0 0.0 0
M  V30 33 C 5.1961 -0.75 0.0 0
M  V30 34 C 3.8971 0.0 0.0 0
M  V30 35 C 2.598 -0.75 0.0 0
M  V30 36 C 1.299 0.0 0.0 0
M  V30 37 C 0.0 -0.75 0.0 0
M  V30 END ATOM
M  V30 BEGIN BOND
M  V30 1 1 1 2
M  V30 2 1 1 3
M  V30 3 2 2 4
M  V30 4 1 2 5
M  V30 5 1 4 6
M  V30 6 2 5 7
M  V30 7 2 6 8
M  V30 8 1 8 9
M  V30 9 1 9 10
M  V30 10 1 10 11
M  V30 11 1 10 12
M  V30 12 2 11 13
M  V30 13 1 11 14
M  V30 14 1 12 15
M  V30 15 1 13 16
M  V30 16 2 14 17
M  V30 17 1 15 18
M  V30 18 2 16 19
M  V30 19 1 18 20
M  V30 20 1 18 21
M  V30 21 1 18 22
M  V30 22 1 20 23
M  V30 23 1 23 24
M  V30 24 1 24 25
M  V30 25 1 25 26
M  V30 26 1 26 27
M  V30 27 1 27 28
M  V30 28 1 28 29
M  V30 29 1 29 30
M  V30 30 1 30 31
M  V30 31 1 31 32
M  V30 32 1 32 33
M  V30 33 1 33 34
M  V30 34 1 34 35
M  V30 35 1 35 36
M  V30 36 1 36 37
M  V30 37 1 7 8
M  V30 38 1 17 19
M  V30 END BOND
M  V30 END CTAB
M  END
>  <Molecule Name>


>  <status>
-

>  <cas>
553-08-2

>  <name>
THONZONIUM

>  <ID>
1370

>  <Smiles>
CCCCCCCCCCCCCCCC[N+](C)(C)CCN(Cc(cc1)ccc1OC)c1ncccn1

$$$$

Actelion Java MolfileCreator 2.0

  0  0  0  0  0  0              0 V3000
M  V30 BEGIN CTAB
M  V30 COUNTS 25 27 0 0 0
M  V30 BEGIN ATOM
M  V30 1 S 3.4641 -2.4318 0.0 0
M  V30 2 C 3.7229 -1.4659 0.0 0 CFG=2
M  V30 3 C 4.1712 -3.1389 0.0 0
M  V30 4 N 4.6888 -1.2071 0.0 0
M  V30 5 C 3.4641 -0.5 0.0 0 CFG=2
M  V30 6 C 5.1371 -2.8801 0.0 0
M  V30 7 C 5.3959 -1.9142 0.0 0
M  V30 8 C 4.43 -0.2411 0.0 0
M  V30 9 N 2.598 0.0 0.0 0
M  V30 10 C 5.8442 -3.5872 0.0 0
M  V30 11 C 6.3618 -1.6553 0.0 0
M  V30 12 O 4.93 0.6248 0.0 0
M  V30 13 C 1.732 -0.5 0.0 0
M  V30 14 O 7.0689 -2.3625 0.0 0
M  V30 15 O 6.6206 -0.6894 0.0 0 CHG=-1
M  V30 16 O 1.732 -1.5 0.0 0
M  V30 17 C 0.866 0.0 0.0 0 CFG=1
M  V30 18 N 0.866 1.0 0.0 0
M  V30 19 C 0.0 -0.5 0.0 0
M  V30 20 C -0.866 0.0 0.0 0
M  V30 21 C 0.0 -1.4999 0.0 0
M  V30 22 C -1.732 -0.4999 0.0 0
M  V30 23 C -0.866 -1.9999 0.0 0
M  V30 24 C -1.732 -1.4999 0.0 0
M  V30 25 O -2.598 -1.9999 0.0 0
M  V30 END ATOM
M  V30 BEGIN BOND
M  V30 1 1 2 1 CFG=1
M  V30 2 1 1 3
M  V30 3 1 2 4
M  V30 4 1 5 2
M  V30 5 1 3 6
M  V30 6 1 4 7
M  V30 7 1 4 8
M  V30 8 1 5 9 CFG=1
M  V30 9 1 6 10
M  V30 10 1 7 11
M  V30 11 2 8 12
M  V30 12 1 9 13
M  V30 13 2 11 14
M  V30 14 1 11 15
M  V30 15 2 13 16
M  V30 16 1 17 13
M  V30 17 1 17 18 CFG=3
M  V30 18 1 17 19
M  V30 19 2 19 20
M  V30 20 1 19 21
M  V30 21 1 20 22
M  V30 22 2 21 23
M  V30 23 2 22 24
M  V30 24 1 24 25
M  V30 25 1 5 8
M  V30 26 2 6 7
M  V30 27 1 23 24
M  V30 END BOND
M  V30 BEGIN COLLECTION
M  V30 MDLV30/STERAC1 ATOMS=(3 2 5 17)
M  V30 END COLLECTION
M  V30 END CTAB
M  END
>  <Molecule Name>


>  <status>
-

>  <cas>
50370-12-2

>  <name>
CEFADROXIL

>  <ID>
1371

>  <Smiles>
CC(CS[C@H]1[C@H]2NC([C@H](c(cc3)ccc3O)N)=O)=C(C([O-])=O)N1C2=O

$$$$

Actelion Java MolfileCreator 2.0

  0  0  0  0  0  0              0 V3000
M  V30 BEGIN CTAB
M  V30 COUNTS 15 16 0 0 0
M  V30 BEGIN ATOM
M  V30 1 S 4.9721 -1.2546 0.0 0
M  V30 2 O 6.3424 -1.8647 0.0 0
M  V30 3 O 6.1856 -0.3729 0.0 0
M  V30 4 C 3.9684 -0.1398 0.0 0
M  V30 5 C 4.2221 -2.5536 0.0 0 CFG=2
M  V30 6 C 2.598 -0.75 0.0 0 CFG=2
M  V30 7 C 4.9721 0.9747 0.0 0
M  V30 8 C 3.5048 1.2866 0.0 0
M  V30 9 N 2.7548 -2.2417 0.0 0
M  V30 10 C 3.9102 -4.0208 0.0 0
M  V30 11 C 1.299 0.0 0.0 0
M  V30 12 C 2.443 -3.709 0.0 0
M  V30 13 O 1.299 1.5 0.0 0
M  V30 14 O 0.0 -0.75 0.0 0 CHG=-1
M  V30 15 O 1.185 -4.5259 0.0 0
M  V30 END ATOM
M  V30 BEGIN BOND
M  V30 1 2 1 2
M  V30 2 2 1 3
M  V30 3 1 1 4
M  V30 4 1 5 1
M  V30 5 1 6 4
M  V30 6 1 4 7
M  V30 7 1 4 8
M  V30 8 1 5 9 CFG=1
M  V30 9 1 5 10
M  V30 10 1 6 11 CFG=3
M  V30 11 1 9 12
M  V30 12 2 11 13
M  V30 13 1 11 14
M  V30 14 2 12 15
M  V30 15 1 6 9
M  V30 16 1 10 12
M  V30 END BOND
M  V30 BEGIN COLLECTION
M  V30 MDLV30/STERAC1 ATOMS=(2 5 6)
M  V30 END COLLECTION
M  V30 END CTAB
M  END
>  <Molecule Name>


>  <status>
-

>  <cas>
68373-14-8

>  <name>
SULBACTAM

>  <ID>
1372

>  <Smiles>
CC(C)([C@@H](C([O-])=O)N([C@@H]1C2)C2=O)S1(=O)=O

$$$$

Actelion Java MolfileCreator 2.0

  0  0  0  0  0  0              0 V3000
M  V30 BEGIN CTAB
M  V30 COUNTS 48 49 0 0 0
M  V30 BEGIN ATOM
M  V30 1 O 16.9502 -4.5167 0.0 0
M  V30 2 C 16.9502 -3.0111 0.0 0
M  V30 3 N 15.6463 -2.2583 0.0 0
M  V30 4 C 18.254 -2.2583 0.0 0
M  V30 5 C 14.3424 -3.0111 0.0 0 CFG=2
M  V30 6 N 18.254 -0.7527 0.0 0
M  V30 7 C 19.5579 -3.0111 0.0 0
M  V30 8 C 13.0386 -2.2583 0.0 0
M  V30 9 C 14.3424 -4.5167 0.0 0 CFG=2
M  V30 10 C 16.9502 0.0 0.0 0
M  V30 11 N 20.8617 -2.2583 0.0 0
M  V30 12 O 13.391 -0.8849 0.0 0
M  V30 13 N 11.7347 -3.0111 0.0 0
M  V30 14 N 13.0386 -5.2694 0.0 0
M  V30 15 C 15.6463 -5.2694 0.0 0
M  V30 16 O 15.6463 -0.7527 0.0 0
M  V30 17 C 16.9502 1.5055 0.0 0 CFG=1
M  V30 18 C 22.1656 -3.0111 0.0 0
M  V30 19 C 10.4308 -2.2583 0.0 0
M  V30 20 C 13.0386 -6.775 0.0 0
M  V30 21 C 15.6463 -6.775 0.0 0 CFG=1
M  V30 22 N 15.6463 2.2583 0.0 0
M  V30 23 C 18.254 2.2583 0.0 0
M  V30 24 O 22.1656 -4.5167 0.0 0
M  V30 25 N 23.4695 -2.2583 0.0 0
M  V30 26 C 10.4308 -0.7527 0.0 0 CFG=2
M  V30 27 N 14.3424 -7.5278 0.0 0
M  V30 28 N 11.7347 -7.5278 0.0 0
M  V30 29 O 16.9502 -7.5278 0.0 0
M  V30 30 C 14.3424 1.5055 0.0 0
M  V30 31 O 18.254 3.7639 0.0 0
M  V30 32 N 9.127 0.0 0.0 0
M  V30 33 C 11.7347 0.0 0.0 0
M  V30 34 O 14.3424 0.0 0.0 0
M  V30 35 C 13.0386 2.2583 0.0 0 CFG=1
M  V30 36 C 7.8231 -0.7527 0.0 0
M  V30 37 O 12.8624 -0.6867 0.0 0
M  V30 38 N 11.7347 1.5055 0.0 0
M  V30 39 C 13.0386 3.7639 0.0 0
M  V30 40 O 7.8231 -2.2583 0.0 0
M  V30 41 C 6.5193 0.0 0.0 0
M  V30 42 O 11.7347 4.5167 0.0 0
M  V30 43 C 5.2154 -0.7527 0.0 0 CFG=1
M  V30 44 N 5.2154 -2.2583 0.0 0
M  V30 45 C 3.9115 0.0 0.0 0
M  V30 46 C 2.6077 -0.7527 0.0 0
M  V30 47 C 1.3038 0.0 0.0 0
M  V30 48 N 0.0 -0.7527 0.0 0
M  V30 END ATOM
M  V30 BEGIN BOND
M  V30 1 2 1 2
M  V30 2 1 2 3
M  V30 3 1 2 4
M  V30 4 1 5 3 CFG=1
M  V30 5 1 4 6
M  V30 6 2 4 7
M  V30 7 1 5 8
M  V30 8 1 9 5
M  V30 9 1 6 10
M  V30 10 1 7 11
M  V30 11 2 8 12
M  V30 12 1 8 13
M  V30 13 1 9 14 CFG=1
M  V30 14 1 9 15
M  V30 15 2 10 16
M  V30 16 1 17 10
M  V30 17 1 11 18
M  V30 18 1 13 19
M  V30 19 1 14 20
M  V30 20 1 21 15
M  V30 21 1 17 22
M  V30 22 1 17 23 CFG=1
M  V30 23 2 18 24
M  V30 24 1 18 25
M  V30 25 1 26 19
M  V30 26 2 20 27
M  V30 27 1 20 28
M  V30 28 1 21 29 CFG=3
M  V30 29 1 22 30
M  V30 30 1 23 31
M  V30 31 1 26 32 CFG=3
M  V30 32 1 26 33
M  V30 33 2 30 34
M  V30 34 1 35 30
M  V30 35 1 32 36
M  V30 36 2 33 37
M  V30 37 1 33 38
M  V30 38 1 35 39 CFG=1
M  V30 39 2 36 40
M  V30 40 1 36 41
M  V30 41 1 39 42
M  V30 42 1 43 41
M  V30 43 1 43 44 CFG=1
M  V30 44 1 43 45
M  V30 45 1 45 46
M  V30 46 1 46 47
M  V30 47 1 47 48
M  V30 48 1 21 27
M  V30 49 1 35 38
M  V30 END BOND
M  V30 BEGIN COLLECTION
M  V30 MDLV30/STERAC1 ATOMS=(7 5 9 17 21 26 35 43)
M  V30 END COLLECTION
M  V30 END CTAB
M  END
>  <Molecule Name>


>  <status>
DISCONTINUED

>  <cas>
32988-50-4

>  <name>
VIOMYCIN

>  <ID>
1373

>  <Smiles>
NCCC[C@@H](CC(N[C@@H](CNC([C@H]([C@@H](C1)NC(N)=N[C@H]1O)NC(/C(/NC([C@H](CO)NC([C@H](CO)N1)=O)=O)=C/NC(N)=O)=O)=O)C1=O)=O)N

$$$$

Actelion Java MolfileCreator 2.0

  0  0  0  0  0  0              0 V3000
M  V30 BEGIN CTAB
M  V30 COUNTS 24 26 0 0 0
M  V30 BEGIN ATOM
M  V30 1 O 11.8188 -0.2864 0.0 0
M  V30 2 C 10.3923 -0.75 0.0 0
M  V30 3 C 12.7005 -1.5 0.0 0
M  V30 4 C 10.3923 -2.25 0.0 0
M  V30 5 C 9.0932 0.0 0.0 0
M  V30 6 O 11.8188 -2.7135 0.0 0
M  V30 7 C 9.0932 -3.0 0.0 0
M  V30 8 C 7.7942 -0.75 0.0 0
M  V30 9 C 7.7942 -2.2499 0.0 0
M  V30 10 C 6.4951 0.0 0.0 0
M  V30 11 C 5.1961 -0.75 0.0 0 CFG=2
M  V30 12 N 3.8971 0.0 0.0 0
M  V30 13 C 5.1961 -2.25 0.0 0
M  V30 14 C 2.598 -0.75 0.0 0
M  V30 15 C 1.299 0.0 0.0 0 CFG=2
M  V30 16 O 1.299 1.5 0.0 0
M  V30 17 C 0.0 -0.75 0.0 0
M  V30 18 C -1.299 0.0 0.0 0
M  V30 19 C 0.0 -2.2499 0.0 0
M  V30 20 C -2.598 -0.7499 0.0 0
M  V30 21 C -1.299 -2.9999 0.0 0
M  V30 22 O -3.8971 0.0 0.0 0
M  V30 23 C -2.598 -2.2499 0.0 0
M  V30 24 O -3.8971 -2.9999 0.0 0
M  V30 END ATOM
M  V30 BEGIN BOND
M  V30 1 1 1 2
M  V30 2 1 1 3
M  V30 3 2 2 4
M  V30 4 1 2 5
M  V30 5 1 3 6
M  V30 6 1 4 7
M  V30 7 2 5 8
M  V30 8 2 7 9
M  V30 9 1 8 10
M  V30 10 1 11 10
M  V30 11 1 11 12 CFG=1
M  V30 12 1 11 13
M  V30 13 1 12 14
M  V30 14 1 15 14
M  V30 15 1 15 16 CFG=1
M  V30 16 1 15 17
M  V30 17 2 17 18
M  V30 18 1 17 19
M  V30 19 1 18 20
M  V30 20 2 19 21
M  V30 21 1 20 22
M  V30 22 2 20 23
M  V30 23 1 23 24
M  V30 24 1 4 6
M  V30 25 1 8 9
M  V30 26 1 21 23
M  V30 END BOND
M  V30 BEGIN COLLECTION
M  V30 MDLV30/STERAC1 ATOMS=(2 11 15)
M  V30 END COLLECTION
M  V30 END CTAB
M  END
>  <Molecule Name>


>  <status>
DISCONTINUED

>  <cas>
912804-64-9

>  <name>
PROTOKYLOL

>  <ID>
1374

>  <Smiles>
C[C@H](Cc(cc1)cc2c1OCO2)NC[C@@H](c(cc1)cc(O)c1O)O

$$$$
Molecule-1
Actelion Java MolfileCreator 2.0

  0  0  0  0  0  0              0 V3000
M  V30 BEGIN CTAB
M  V30 COUNTS 22 22 0 0 0
M  V30 BEGIN ATOM
M  V30 1 O 6.0621 0.0 0.0 0
M  V30 2 C 5.1961 -0.5 0.0 0
M  V30 3 O 4.3301 0.0 0.0 0
M  V30 4 C 5.1961 -1.4999 0.0 0
M  V30 5 C 3.4641 -0.5 0.0 0
M  V30 6 C 4.3301 -1.9999 0.0 0
M  V30 7 C 6.0621 -2.0 0.0 0
M  V30 8 C 2.598 0.0 0.0 0
M  V30 9 C 4.3301 -2.9999 0.0 0
M  V30 10 C 6.0621 -3.0 0.0 0
M  V30 11 N 1.732 -0.5 0.0 0
M  V30 12 O 3.4641 -3.4999 0.0 0
M  V30 13 C 5.1961 -3.5 0.0 0
M  V30 14 C 1.732 -1.5 0.0 0
M  V30 15 C 0.866 0.0 0.0 0
M  V30 16 C 2.598 -2.9999 0.0 0
M  V30 17 N 5.1961 -4.5 0.0 0
M  V30 18 C 2.598 -1.9999 0.0 0
M  V30 19 C 0.0 -0.5 0.0 0
M  V30 20 C 1.732 -3.4999 0.0 0
M  V30 21 C 0.866 -2.9999 0.0 0
M  V30 22 C 0.0 -3.4999 0.0 0
M  V30 END ATOM
M  V30 BEGIN BOND
M  V30 1 2 1 2
M  V30 2 1 2 3
M  V30 3 1 2 4
M  V30 4 1 3 5
M  V30 5 2 4 6
M  V30 6 1 4 7
M  V30 7 1 5 8
M  V30 8 1 6 9
M  V30 9 2 7 10
M  V30 10 1 8 11
M  V30 11 1 9 12
M  V30 12 2 9 13
M  V30 13 1 11 14
M  V30 14 1 11 15
M  V30 15 1 12 16
M  V30 16 1 13 17
M  V30 17 1 14 18
M  V30 18 1 15 19
M  V30 19 1 16 20
M  V30 20 1 20 21
M  V30 21 1 21 22
M  V30 22 1 10 13
M  V30 END BOND
M  V30 END CTAB
M  END
>  <Molecule Name>
Molecule-1

>  <status>
-

>  <cas>
99-43-4

>  <name>
BENOXINATE

>  <ID>
1375

>  <Smiles>
CCCCOc(cc(cc1)C(OCCN(CC)CC)=O)c1N

$$$$

Actelion Java MolfileCreator 2.0

  0  0  0  0  0  0              0 V3000
M  V30 BEGIN CTAB
M  V30 COUNTS 16 15 0 0 0
M  V30 BEGIN ATOM
M  V30 1 O 6.9282 -0.5 0.0 0
M  V30 2 C 6.0621 0.0 0.0 0
M  V30 3 O 5.1961 -0.5 0.0 0
M  V30 4 N 6.0621 0.9999 0.0 0
M  V30 5 C 4.3301 0.0 0.0 0
M  V30 6 C 3.4641 -0.5 0.0 0
M  V30 7 C 3.4641 -1.5 0.0 0 CFG=2
M  V30 8 C 2.598 0.0 0.0 0
M  V30 9 C 3.4641 0.5 0.0 0
M  V30 10 C 4.3301 -2.0 0.0 0
M  V30 11 C 2.598 -2.0 0.0 0
M  V30 12 O 1.732 -0.5 0.0 0
M  V30 13 C 5.1961 -1.5 0.0 0
M  V30 14 C 0.866 0.0 0.0 0
M  V30 15 O 0.866 1.0 0.0 0
M  V30 16 N 0.0 -0.5 0.0 0
M  V30 END ATOM
M  V30 BEGIN BOND
M  V30 1 2 1 2
M  V30 2 1 2 3
M  V30 3 1 2 4
M  V30 4 1 3 5
M  V30 5 1 5 6
M  V30 6 1 7 6
M  V30 7 1 6 8
M  V30 8 1 6 9
M  V30 9 1 7 10
M  V30 10 1 7 11 CFG=3
M  V30 11 1 8 12
M  V30 12 1 10 13
M  V30 13 1 12 14
M  V30 14 2 14 15
M  V30 15 1 14 16
M  V30 END BOND
M  V30 BEGIN COLLECTION
M  V30 MDLV30/STERAC1 ATOMS=(1 7)
M  V30 END COLLECTION
M  V30 END CTAB
M  END
>  <Molecule Name>


>  <status>
DISCONTINUED

>  <cas>
64-55-1

>  <name>
MEBUTAMATE

>  <ID>
1376

>  <Smiles>
CCC(C)C(C)(COC(N)=O)COC(N)=O

$$$$

Actelion Java MolfileCreator 2.0

  0  0  0  0  0  0              0 V3000
M  V30 BEGIN CTAB
M  V30 COUNTS 16 15 0 0 0
M  V30 BEGIN ATOM
M  V30 1 O 6.9282 -0.5 0.0 0
M  V30 2 C 6.0621 0.0 0.0 0
M  V30 3 O 5.1961 -0.5 0.0 0
M  V30 4 N 6.0621 0.9999 0.0 0
M  V30 5 C 4.3301 0.0 0.0 0
M  V30 6 C 3.4641 -0.5 0.0 0
M  V30 7 C 3.4641 -1.5 0.0 0 CFG=2
M  V30 8 C 2.598 0.0 0.0 0
M  V30 9 C 3.4641 0.5 0.0 0
M  V30 10 C 4.3301 -2.0 0.0 0
M  V30 11 C 2.598 -2.0 0.0 0
M  V30 12 O 1.732 -0.5 0.0 0
M  V30 13 C 5.1961 -1.5 0.0 0
M  V30 14 C 0.866 0.0 0.0 0
M  V30 15 O 0.866 1.0 0.0 0
M  V30 16 N 0.0 -0.5 0.0 0
M  V30 END ATOM
M  V30 BEGIN BOND
M  V30 1 2 1 2
M  V30 2 1 2 3
M  V30 3 1 2 4
M  V30 4 1 3 5
M  V30 5 1 5 6
M  V30 6 1 7 6
M  V30 7 1 6 8
M  V30 8 1 6 9
M  V30 9 1 7 10
M  V30 10 1 7 11 CFG=3
M  V30 11 1 8 12
M  V30 12 1 10 13
M  V30 13 1 12 14
M  V30 14 2 14 15
M  V30 15 1 14 16
M  V30 END BOND
M  V30 BEGIN COLLECTION
M  V30 MDLV30/STERAC1 ATOMS=(1 7)
M  V30 END COLLECTION
M  V30 END CTAB
M  END
>  <Molecule Name>


>  <status>
DISCONTINUED

>  <cas>
64-55-1

>  <name>
MEBUTAMATE

>  <ID>
1377

>  <Smiles>
CCC(C)C(C)(COC(N)=O)COC(N)=O

$$$$
Molecule-1
Actelion Java MolfileCreator 2.0

  0  0  0  0  0  0              0 V3000
M  V30 BEGIN CTAB
M  V30 COUNTS 33 35 0 0 0
M  V30 BEGIN ATOM
M  V30 1 Cl 7.7942 3.75 0.0 0
M  V30 2 C 7.7942 2.25 0.0 0
M  V30 3 C 6.4951 1.5 0.0 0
M  V30 4 C 9.0932 1.5 0.0 0
M  V30 5 C 6.4951 0.0 0.0 0
M  V30 6 C 9.0932 0.0 0.0 0
M  V30 7 C 7.7942 -0.75 0.0 0
M  V30 8 C 5.1961 -0.75 0.0 0
M  V30 9 O 7.7942 -2.25 0.0 0
M  V30 10 O 5.1961 -2.25 0.0 0
M  V30 11 N 3.8971 0.0 0.0 0
M  V30 12 C 9.0932 -3.0 0.0 0
M  V30 13 C 2.598 -0.75 0.0 0
M  V30 14 C 1.299 0.0 0.0 0
M  V30 15 C 0.0 -0.75 0.0 0
M  V30 16 C -1.299 0.0 0.0 0
M  V30 17 C 0.0 -2.25 0.0 0
M  V30 18 C -2.598 -0.75 0.0 0
M  V30 19 C -1.299 -3.0 0.0 0
M  V30 20 C -2.598 -2.25 0.0 0
M  V30 21 S -3.8971 -3.0 0.0 0
M  V30 22 O -4.6471 -4.299 0.0 0
M  V30 23 O -3.1471 -4.299 0.0 0
M  V30 24 N -5.1961 -2.25 0.0 0
M  V30 25 C -6.4951 -3.0 0.0 0
M  V30 26 O -6.4951 -4.5 0.0 0
M  V30 27 N -7.7942 -2.25 0.0 0
M  V30 28 C -9.0932 -3.0 0.0 0
M  V30 29 C -10.3923 -2.25 0.0 0
M  V30 30 C -9.0932 -4.5 0.0 0
M  V30 31 C -11.6913 -3.0 0.0 0
M  V30 32 C -10.3923 -5.25 0.0 0
M  V30 33 C -11.6913 -4.5 0.0 0
M  V30 END ATOM
M  V30 BEGIN BOND
M  V30 1 1 1 2
M  V30 2 2 2 3
M  V30 3 1 2 4
M  V30 4 1 3 5
M  V30 5 2 4 6
M  V30 6 2 5 7
M  V30 7 1 5 8
M  V30 8 1 7 9
M  V30 9 2 8 10
M  V30 10 1 8 11
M  V30 11 1 9 12
M  V30 12 1 11 13
M  V30 13 1 13 14
M  V30 14 1 14 15
M  V30 15 2 15 16
M  V30 16 1 15 17
M  V30 17 1 16 18
M  V30 18 2 17 19
M  V30 19 2 18 20
M  V30 20 1 20 21
M  V30 21 2 21 22
M  V30 22 2 21 23
M  V30 23 1 21 24
M  V30 24 1 24 25
M  V30 25 2 25 26
M  V30 26 1 25 27
M  V30 27 1 27 28
M  V30 28 1 28 29
M  V30 29 1 28 30
M  V30 30 1 29 31
M  V30 31 1 30 32
M  V30 32 1 31 33
M  V30 33 1 6 7
M  V30 34 1 19 20
M  V30 35 1 32 33
M  V30 END BOND
M  V30 END CTAB
M  END
>  <Molecule Name>
Molecule-1

>  <status>
-

>  <cas>
10238-21-8

>  <name>
GLYBURIDE

>  <ID>
1378

>  <Smiles>
COc(ccc(Cl)c1)c1C(NCCc(cc1)ccc1S(NC(NC1CCCCC1)=O)(=O)=O)=O

$$$$

Actelion Java MolfileCreator 2.0

  0  0  0  0  0  0              0 V3000
M  V30 BEGIN CTAB
M  V30 COUNTS 17 17 0 0 0
M  V30 BEGIN ATOM
M  V30 1 O 6.0621 -1.9999 0.0 0
M  V30 2 C 5.1961 -1.4999 0.0 0
M  V30 3 C 5.1961 -0.5 0.0 0
M  V30 4 C 4.3301 -1.9999 0.0 0
M  V30 5 C 4.3301 0.0 0.0 0
M  V30 6 C 6.0621 0.0 0.0 0
M  V30 7 C 3.4641 -1.5 0.0 0
M  V30 8 C 3.4641 -0.5 0.0 0
M  V30 9 O 6.0621 0.9999 0.0 0
M  V30 10 C 2.598 0.0 0.0 0 CFG=1
M  V30 11 O 2.598 1.0 0.0 0
M  V30 12 C 1.732 -0.5 0.0 0
M  V30 13 N 0.866 0.0 0.0 0
M  V30 14 C 0.0 -0.5 0.0 0
M  V30 15 C 0.4999 -1.366 0.0 0
M  V30 16 C -0.866 -0.9999 0.0 0
M  V30 17 C -0.4999 0.366 0.0 0
M  V30 END ATOM
M  V30 BEGIN BOND
M  V30 1 1 1 2
M  V30 2 2 2 3
M  V30 3 1 2 4
M  V30 4 1 3 5
M  V30 5 1 3 6
M  V30 6 2 4 7
M  V30 7 2 5 8
M  V30 8 1 6 9
M  V30 9 1 10 8
M  V30 10 1 10 11 CFG=3
M  V30 11 1 10 12
M  V30 12 1 12 13
M  V30 13 1 13 14
M  V30 14 1 14 15
M  V30 15 1 14 16
M  V30 16 1 14 17
M  V30 17 1 7 8
M  V30 END BOND
M  V30 BEGIN COLLECTION
M  V30 MDLV30/STERAC1 ATOMS=(1 10)
M  V30 END COLLECTION
M  V30 END CTAB
M  END
>  <Molecule Name>


>  <status>
-

>  <cas>
18559-94-9

>  <name>
ALBUTEROL

>  <ID>
1379

>  <Smiles>
CC(C)(C)NCC(c(cc1)cc(CO)c1O)O

$$$$
Molecule-1
Actelion Java MolfileCreator 2.0

  0  0  0  0  0  0              0 V3000
M  V30 BEGIN CTAB
M  V30 COUNTS 40 41 0 0 0
M  V30 BEGIN ATOM
M  V30 1 C 24.6817 0.0 0.0 0
M  V30 2 C 25.9808 -0.75 0.0 0
M  V30 3 C 23.3827 -0.75 0.0 0
M  V30 4 C 24.6817 1.5 0.0 0
M  V30 5 C 27.2798 0.0 0.0 0
M  V30 6 C 25.9808 -2.25 0.0 0
M  V30 7 C 22.0836 0.0 0.0 0
M  V30 8 C 25.9808 2.25 0.0 0
M  V30 9 C 23.9318 2.799 0.0 0
M  V30 10 C 23.1818 1.4999 0.0 0
M  V30 11 C 27.2798 1.5 0.0 0
M  V30 12 C 20.7846 -0.75 0.0 0
M  V30 13 C 19.4856 0.0 0.0 0
M  V30 14 C 20.7846 -2.25 0.0 0
M  V30 15 C 18.1865 -0.75 0.0 0
M  V30 16 C 16.8875 0.0 0.0 0
M  V30 17 C 15.5884 -0.75 0.0 0
M  V30 18 C 14.2894 0.0 0.0 0
M  V30 19 C 15.5884 -2.25 0.0 0
M  V30 20 C 12.9904 -0.75 0.0 0
M  V30 21 C 11.6913 0.0 0.0 0
M  V30 22 C 10.3923 -0.75 0.0 0
M  V30 23 C 9.0932 0.0 0.0 0
M  V30 24 C 7.7942 -0.75 0.0 0
M  V30 25 C 9.0932 1.5 0.0 0
M  V30 26 C 6.4952 0.0 0.0 0
M  V30 27 C 5.1961 -0.75 0.0 0
M  V30 28 C 3.8971 0.0 0.0 0
M  V30 29 C 2.598 -0.75 0.0 0
M  V30 30 C 3.8971 1.5 0.0 0
M  V30 31 C 1.299 0.0 0.0 0
M  V30 32 C 0.0 -0.75 0.0 0
M  V30 33 C -1.299 0.0 0.0 0
M  V30 34 C 0.0 -2.25 0.0 0
M  V30 35 C -2.598 -0.75 0.0 0
M  V30 36 C -1.299 1.5 0.0 0
M  V30 37 C -1.299 -3.0 0.0 0
M  V30 38 C 0.7499 -3.549 0.0 0
M  V30 39 C 1.4999 -2.2499 0.0 0
M  V30 40 C -2.598 -2.25 0.0 0
M  V30 END ATOM
M  V30 BEGIN BOND
M  V30 1 2 1 2
M  V30 2 1 1 3
M  V30 3 1 1 4
M  V30 4 1 2 5
M  V30 5 1 2 6
M  V30 6 2 3 7
M  V30 7 1 4 8
M  V30 8 1 4 9
M  V30 9 1 4 10
M  V30 10 1 5 11
M  V30 11 1 7 12
M  V30 12 2 12 13
M  V30 13 1 12 14
M  V30 14 1 13 15
M  V30 15 2 15 16
M  V30 16 1 16 17
M  V30 17 2 17 18
M  V30 18 1 17 19
M  V30 19 1 18 20
M  V30 20 2 20 21
M  V30 21 1 21 22
M  V30 22 2 22 23
M  V30 23 1 23 24
M  V30 24 1 23 25
M  V30 25 2 24 26
M  V30 26 1 26 27
M  V30 27 2 27 28
M  V30 28 1 28 29
M  V30 29 1 28 30
M  V30 30 2 29 31
M  V30 31 1 31 32
M  V30 32 2 32 33
M  V30 33 1 32 34
M  V30 34 1 33 35
M  V30 35 1 33 36
M  V30 36 1 34 37
M  V30 37 1 34 38
M  V30 38 1 34 39
M  V30 39 1 35 40
M  V30 40 1 8 11
M  V30 41 1 37 40
M  V30 END BOND
M  V30 END CTAB
M  END
>  <Molecule Name>
Molecule-1

>  <status>
DISCONTINUED

>  <cas>
7235-40-7

>  <name>
BETA CAROTENE

>  <ID>
1380

>  <Smiles>
CC1(C)C(/C=C/C(/C)=C/C=C/C(/C)=C/C=C/C=C(\C)/C=C/C=C(\C)/C=C/C2=C(C)CCCC2(C)C)=C(C)CCC1

$$$$

Actelion Java MolfileCreator 2.0

  0  0  0  0  0  0              0 V3000
M  V30 BEGIN CTAB
M  V30 COUNTS 26 28 0 0 0
M  V30 BEGIN ATOM
M  V30 1 O 6.9073 0.2318 0.0 0
M  V30 2 C 5.9128 0.3364 0.0 0
M  V30 3 N 5.2436 -0.4067 0.0 0
M  V30 4 C 5.4128 1.2024 0.0 0
M  V30 5 C 4.3301 0.0 0.0 0 CFG=1
M  V30 6 C 4.4346 0.9945 0.0 0
M  V30 7 C 3.4641 -0.5 0.0 0
M  V30 8 O 3.4641 -1.5 0.0 0
M  V30 9 N 2.598 0.0 0.0 0
M  V30 10 C 1.732 -0.5 0.0 0 CFG=2
M  V30 11 C 1.732 -1.5 0.0 0
M  V30 12 C 0.866 0.0 0.0 0
M  V30 13 O 2.598 -1.9999 0.0 0
M  V30 14 N 0.866 -2.0 0.0 0
M  V30 15 C 0.866 0.9999 0.0 0
M  V30 16 C 0.7614 -2.9945 0.0 0 CFG=2
M  V30 17 C -0.0475 -1.5932 0.0 0
M  V30 18 N 0.057 1.5877 0.0 0
M  V30 19 C 1.675 1.5877 0.0 0
M  V30 20 C 1.5046 -3.6636 0.0 0
M  V30 21 C -0.2166 -3.2024 0.0 0
M  V30 22 C -0.7166 -2.3364 0.0 0
M  V30 23 C 0.366 2.5388 0.0 0
M  V30 24 N 1.366 2.5388 0.0 0
M  V30 25 O 2.4556 -3.3546 0.0 0
M  V30 26 N 1.2967 -4.6418 0.0 0
M  V30 END ATOM
M  V30 BEGIN BOND
M  V30 1 2 1 2
M  V30 2 1 2 3
M  V30 3 1 2 4
M  V30 4 1 5 3
M  V30 5 1 4 6
M  V30 6 1 5 7 CFG=3
M  V30 7 2 7 8
M  V30 8 1 7 9
M  V30 9 1 10 9 CFG=3
M  V30 10 1 10 11
M  V30 11 1 10 12
M  V30 12 2 11 13
M  V30 13 1 11 14
M  V30 14 1 12 15
M  V30 15 1 16 14
M  V30 16 1 14 17
M  V30 17 1 15 18
M  V30 18 2 15 19
M  V30 19 1 16 20 CFG=3
M  V30 20 1 16 21
M  V30 21 1 17 22
M  V30 22 2 18 23
M  V30 23 1 19 24
M  V30 24 2 20 25
M  V30 25 1 20 26
M  V30 26 1 5 6
M  V30 27 1 21 22
M  V30 28 1 23 24
M  V30 END BOND
M  V30 BEGIN COLLECTION
M  V30 MDLV30/STERAC1 ATOMS=(3 5 10 16)
M  V30 END COLLECTION
M  V30 END CTAB
M  END
>  <Molecule Name>


>  <status>
DISCONTINUED

>  <cas>
24305-27-9

>  <name>
PROTIRELIN

>  <ID>
1381

>  <Smiles>
NC([C@H](CCC1)N1C([C@H](Cc1c[nH]cn1)NC([C@H](CC1)NC1=O)=O)=O)=O

$$$$
_c001
Actelion Java MolfileCreator 2.0

  0  0  0  0  0  0              0 V3000
M  V30 BEGIN CTAB
M  V30 COUNTS 78 81 0 0 0
M  V30 BEGIN ATOM
M  V30 1 S 16.4544 3.0 0.0 0
M  V30 2 O 15.9544 2.1339 0.0 0
M  V30 3 O 16.9544 3.866 0.0 0
M  V30 4 O 17.3205 2.5 0.0 0
M  V30 5 O 15.5884 3.5 0.0 0
M  V30 6 C 17.3205 1.5 0.0 0
M  V30 7 C 18.1865 0.9999 0.0 0
M  V30 8 C 16.4544 1.0 0.0 0
M  V30 9 C 18.1865 0.0 0.0 0
M  V30 10 C 16.4544 0.0 0.0 0
M  V30 11 C 17.3205 -0.5 0.0 0
M  V30 12 C 17.3205 -1.5 0.0 0
M  V30 13 C 16.4544 -2.0 0.0 0 CFG=2
M  V30 14 N 16.4544 -3.0 0.0 0
M  V30 15 C 15.5884 -1.5 0.0 0
M  V30 16 C 17.3205 -3.5 0.0 0
M  V30 17 O 14.7224 -2.0 0.0 0
M  V30 18 N 15.5884 -0.5 0.0 0
M  V30 19 O 17.3205 -4.5 0.0 0
M  V30 20 C 18.1865 -3.0 0.0 0 CFG=1
M  V30 21 C 14.7224 0.0 0.0 0 CFG=2
M  V30 22 N 18.1865 -2.0 0.0 0
M  V30 23 C 19.0525 -3.5 0.0 0
M  V30 24 C 13.8564 -0.5 0.0 0
M  V30 25 C 14.7224 1.0 0.0 0
M  V30 26 C 19.9185 -3.0 0.0 0
M  V30 27 O 13.8564 -1.5 0.0 0
M  V30 28 N 12.9903 0.0 0.0 0
M  V30 29 C 13.8564 1.5 0.0 0
M  V30 30 O 20.7846 -3.5 0.0 0
M  V30 31 O 19.9185 -2.0 0.0 0 CHG=-1
M  V30 32 C 12.1243 -0.5 0.0 0
M  V30 33 S 13.8564 2.5 0.0 0
M  V30 34 C 11.2583 0.0 0.0 0
M  V30 35 C 12.9903 3.0 0.0 0
M  V30 36 O 11.2583 1.0 0.0 0
M  V30 37 N 10.3923 -0.5 0.0 0
M  V30 38 C 9.5262 0.0 0.0 0 CFG=2
M  V30 39 C 8.6602 -0.5 0.0 0
M  V30 40 C 9.5262 1.0 0.0 0
M  V30 41 O 8.6602 -1.4999 0.0 0
M  V30 42 N 7.7942 0.0 0.0 0
M  V30 43 C 8.6602 1.5 0.0 0
M  V30 44 C 6.9282 -0.5 0.0 0 CFG=2
M  V30 45 C 8.5557 2.4945 0.0 0
M  V30 46 C 7.7467 1.0932 0.0 0
M  V30 47 C 6.0621 0.0 0.0 0
M  V30 48 C 6.9282 -1.4999 0.0 0
M  V30 49 C 7.5775 2.7024 0.0 0
M  V30 50 C 9.2248 3.2376 0.0 0
M  V30 51 N 7.0775 1.8364 0.0 0
M  V30 52 O 6.0621 0.9999 0.0 0
M  V30 53 N 5.1961 -0.5 0.0 0
M  V30 54 C 7.7942 -2.0 0.0 0
M  V30 55 C 7.2685 3.6534 0.0 0
M  V30 56 C 8.9158 4.1887 0.0 0
M  V30 57 C 4.3301 0.0 0.0 0 CFG=2
M  V30 58 S 7.7942 -2.9999 0.0 0
M  V30 59 C 7.9376 4.3966 0.0 0
M  V30 60 C 3.4641 -0.5 0.0 0
M  V30 61 C 4.3301 0.9999 0.0 0
M  V30 62 C 8.6602 -3.4999 0.0 0
M  V30 63 O 3.4641 -1.5 0.0 0
M  V30 64 N 2.598 0.0 0.0 0
M  V30 65 C 3.4641 1.5 0.0 0
M  V30 66 C 1.732 -0.5 0.0 0 CFG=2
M  V30 67 O 2.598 1.0 0.0 0
M  V30 68 O 3.4641 2.5 0.0 0 CHG=-1
M  V30 69 C 1.732 -1.5 0.0 0
M  V30 70 C 0.866 0.0 0.0 0
M  V30 71 O 0.866 -2.0 0.0 0
M  V30 72 N 2.598 -1.9999 0.0 0
M  V30 73 C 0.0 -0.5 0.0 0
M  V30 74 C -0.866 0.0 0.0 0
M  V30 75 C 0.0 -1.4999 0.0 0
M  V30 76 C -1.732 -0.4999 0.0 0
M  V30 77 C -0.866 -1.9999 0.0 0
M  V30 78 C -1.732 -1.4999 0.0 0
M  V30 END ATOM
M  V30 BEGIN BOND
M  V30 1 2 1 2
M  V30 2 2 1 3
M  V30 3 1 1 4
M  V30 4 1 1 5
M  V30 5 1 4 6
M  V30 6 2 6 7
M  V30 7 1 6 8
M  V30 8 1 7 9
M  V30 9 2 8 10
M  V30 10 2 9 11
M  V30 11 1 11 12
M  V30 12 1 13 12
M  V30 13 1 13 14 CFG=3
M  V30 14 1 13 15
M  V30 15 1 14 16
M  V30 16 2 15 17
M  V30 17 1 15 18
M  V30 18 2 16 19
M  V30 19 1 20 16
M  V30 20 1 21 18 CFG=3
M  V30 21 1 20 22 CFG=1
M  V30 22 1 20 23
M  V30 23 1 21 24
M  V30 24 1 21 25
M  V30 25 1 23 26
M  V30 26 2 24 27
M  V30 27 1 24 28
M  V30 28 1 25 29
M  V30 29 2 26 30
M  V30 30 1 26 31
M  V30 31 1 28 32
M  V30 32 1 29 33
M  V30 33 1 32 34
M  V30 34 1 33 35
M  V30 35 2 34 36
M  V30 36 1 34 37
M  V30 37 1 38 37 CFG=3
M  V30 38 1 38 39
M  V30 39 1 38 40
M  V30 40 2 39 41
M  V30 41 1 39 42
M  V30 42 1 40 43
M  V30 43 1 44 42 CFG=1
M  V30 44 1 43 45
M  V30 45 2 43 46
M  V30 46 1 44 47
M  V30 47 1 44 48
M  V30 48 2 45 49
M  V30 49 1 45 50
M  V30 50 1 46 51
M  V30 51 2 47 52
M  V30 52 1 47 53
M  V30 53 1 48 54
M  V30 54 1 49 55
M  V30 55 2 50 56
M  V30 56 1 57 53 CFG=3
M  V30 57 1 54 58
M  V30 58 2 55 59
M  V30 59 1 57 60
M  V30 60 1 57 61
M  V30 61 1 58 62
M  V30 62 2 60 63
M  V30 63 1 60 64
M  V30 64 1 61 65
M  V30 65 1 66 64 CFG=3
M  V30 66 2 65 67
M  V30 67 1 65 68
M  V30 68 1 66 69
M  V30 69 1 66 70
M  V30 70 2 69 71
M  V30 71 1 69 72
M  V30 72 1 70 73
M  V30 73 2 73 74
M  V30 74 1 73 75
M  V30 75 1 74 76
M  V30 76 2 75 77
M  V30 77 2 76 78
M  V30 78 1 10 11
M  V30 79 1 49 51
M  V30 80 1 56 59
M  V30 81 1 77 78
M  V30 END BOND
M  V30 BEGIN COLLECTION
M  V30 MDLV30/STERAC1 ATOMS=(7 13 20 21 38 44 57 66)
M  V30 END COLLECTION
M  V30 END CTAB
M  END
>  <Molecule Name>
_c001

>  <status>
-

>  <cas>
25126-32-3

>  <name>
SINCALIDE

>  <ID>
1382

>  <Smiles>
CSCC[C@@H](C(NCC(N[C@@H](Cc1c[nH]c2c1cccc2)C(N[C@@H](CCSC)C(N[C@@H](CC([O-])=O)C(N[C@@H](Cc1ccccc1)C(N)=O)=O)=O)=O)=O)=O)NC([C@H](Cc(cc1)ccc1OS(O)(=O)=O)NC([C@H](CC([O-])=O)N)=O)=O

$$$$

Actelion Java MolfileCreator 2.0

  0  0  0  0  0  0              0 V3000
M  V30 BEGIN CTAB
M  V30 COUNTS 35 38 0 0 0
M  V30 BEGIN ATOM
M  V30 1 F 6.4044 0.3331 0.0 0
M  V30 2 C 6.2869 -0.5283 0.0 0 CFG=2
M  V30 3 C 7.2528 -0.2695 0.0 0 CFG=2
M  V30 4 C 5.5798 0.1787 0.0 0 CFG=1
M  V30 5 C 6.0281 -1.4942 0.0 0 CFG=2
M  V30 6 C 7.9599 -0.9766 0.0 0
M  V30 7 C 7.5117 0.6963 0.0 0
M  V30 8 C 6.5457 0.6875 0.0 0
M  V30 9 O 5.8386 1.1446 0.0 0
M  V30 10 C 4.6632 -0.094 0.0 0
M  V30 11 C 5.0622 -1.7531 0.0 0 CFG=1
M  V30 12 C 6.7352 -2.2014 0.0 0
M  V30 13 C 8.9259 -0.7178 0.0 0
M  V30 14 C 7.7011 -1.9425 0.0 0 CFG=2
M  V30 15 C 8.4776 0.9551 0.0 0
M  V30 16 C 4.3551 -1.046 0.0 0 CFG=1
M  V30 17 C 4.6082 -2.6441 0.0 0
M  V30 18 C 9.1847 0.248 0.0 0
M  V30 19 F 8.4082 -2.6496 0.0 0
M  V30 20 C 3.4641 -1.5 0.0 0 CFG=1
M  V30 21 C 3.6276 -0.2779 0.0 0
M  V30 22 C 3.6205 -2.4876 0.0 0 CFG=1
M  V30 23 O 10.1506 0.5069 0.0 0
M  V30 24 O 2.573 -1.046 0.0 0
M  V30 25 C 3.3811 -0.5785 0.0 0
M  V30 26 C 2.9134 -3.1947 0.0 0
M  V30 27 C 1.7344 -1.5906 0.0 0
M  V30 28 O 4.2314 0.0278 0.0 0
M  V30 29 C 2.598 0.0 0.0 0
M  V30 30 O 0.8434 -1.1366 0.0 0
M  V30 31 C 1.7867 -2.5892 0.0 0
M  V30 32 O 1.732 -0.4999 0.0 0
M  V30 33 C 0.866 0.0 0.0 0
M  V30 34 O 0.866 1.0 0.0 0
M  V30 35 C 0.0 -0.5 0.0 0
M  V30 END ATOM
M  V30 BEGIN BOND
M  V30 1 1 2 1 CFG=1
M  V30 2 1 3 2
M  V30 3 1 4 2
M  V30 4 1 5 2
M  V30 5 1 3 6
M  V30 6 1 3 7
M  V30 7 1 3 8 CFG=3
M  V30 8 1 4 9 CFG=3
M  V30 9 1 4 10
M  V30 10 1 11 5
M  V30 11 1 5 12 CFG=1
M  V30 12 2 6 13
M  V30 13 1 14 6
M  V30 14 2 7 15
M  V30 15 1 16 10
M  V30 16 1 11 17 CFG=3
M  V30 17 1 13 18
M  V30 18 1 14 19 CFG=1
M  V30 19 1 20 16
M  V30 20 1 16 21 CFG=3
M  V30 21 1 22 17
M  V30 22 2 18 23
M  V30 23 1 20 24
M  V30 24 1 20 25 CFG=3
M  V30 25 1 22 26 CFG=3
M  V30 26 1 24 27
M  V30 27 2 25 28
M  V30 28 1 25 29
M  V30 29 2 27 30
M  V30 30 1 27 31
M  V30 31 1 29 32
M  V30 32 1 32 33
M  V30 33 2 33 34
M  V30 34 1 33 35
M  V30 35 1 11 16
M  V30 36 1 12 14
M  V30 37 1 15 18
M  V30 38 1 20 22
M  V30 END BOND
M  V30 BEGIN COLLECTION
M  V30 MDLV30/STERAC1 ATOMS=(9 2 3 4 5 11 14 16 20 22)
M  V30 END COLLECTION
M  V30 END CTAB
M  END
>  <Molecule Name>


>  <status>
-

>  <cas>
33564-31-7

>  <name>
DIFLORASONE DIACETATE

>  <ID>
1383

>  <Smiles>
C[C@@H](C[C@@H]([C@H](C[C@@H](C([C@]1(C)C=C2)=CC2=O)F)[C@@]11F)[C@]2(C)C[C@@H]1O)[C@@]2(C(COC(C)=O)=O)OC(C)=O

$$$$

Actelion Java MolfileCreator 2.0

  0  0  0  0  0  0              0 V3000
M  V30 BEGIN CTAB
M  V30 COUNTS 20 20 0 0 0
M  V30 BEGIN ATOM
M  V30 1 O 4.3301 0.9999 0.0 0
M  V30 2 C 4.3301 0.0 0.0 0
M  V30 3 N 5.1961 -0.5 0.0 0
M  V30 4 C 3.4641 -0.5 0.0 0 CFG=1
M  V30 5 C 6.0621 0.0 0.0 0
M  V30 6 N 2.598 0.0 0.0 0
M  V30 7 C 3.4641 -1.5 0.0 0
M  V30 8 C 6.9282 -0.5 0.0 0
M  V30 9 C 6.0621 0.9999 0.0 0
M  V30 10 C 1.732 -0.5 0.0 0
M  V30 11 C 2.598 1.0 0.0 0
M  V30 12 C 4.3301 -2.0 0.0 0
M  V30 13 C 7.7942 0.0 0.0 0
M  V30 14 C 6.9282 -1.5 0.0 0
M  V30 15 C 6.9282 1.4999 0.0 0
M  V30 16 C 5.1961 1.5 0.0 0
M  V30 17 C 0.866 0.0 0.0 0
M  V30 18 C 1.732 1.5 0.0 0
M  V30 19 C 7.7942 0.9999 0.0 0
M  V30 20 C 0.0 -0.5 0.0 0
M  V30 END ATOM
M  V30 BEGIN BOND
M  V30 1 2 1 2
M  V30 2 1 2 3
M  V30 3 1 4 2
M  V30 4 1 3 5
M  V30 5 1 4 6 CFG=3
M  V30 6 1 4 7
M  V30 7 2 5 8
M  V30 8 1 5 9
M  V30 9 1 6 10
M  V30 10 1 6 11
M  V30 11 1 7 12
M  V30 12 1 8 13
M  V30 13 1 8 14
M  V30 14 2 9 15
M  V30 15 1 9 16
M  V30 16 1 10 17
M  V30 17 1 11 18
M  V30 18 2 13 19
M  V30 19 1 17 20
M  V30 20 1 15 19
M  V30 END BOND
M  V30 BEGIN COLLECTION
M  V30 MDLV30/STERAC1 ATOMS=(1 4)
M  V30 END COLLECTION
M  V30 END CTAB
M  END
>  <Molecule Name>


>  <status>
DISCONTINUED

>  <cas>
36637-18-0

>  <name>
ETIDOCAINE

>  <ID>
1384

>  <Smiles>
CCCN(CC)C(CC)C(Nc1c(C)cccc1C)=O

$$$$

Actelion Java MolfileCreator 2.0

  0  0  0  0  0  0              0 V3000
M  V30 BEGIN CTAB
M  V30 COUNTS 20 20 0 0 0
M  V30 BEGIN ATOM
M  V30 1 O 4.3301 0.9999 0.0 0
M  V30 2 C 4.3301 0.0 0.0 0
M  V30 3 N 5.1961 -0.5 0.0 0
M  V30 4 C 3.4641 -0.5 0.0 0 CFG=1
M  V30 5 C 6.0621 0.0 0.0 0
M  V30 6 N 2.598 0.0 0.0 0
M  V30 7 C 3.4641 -1.5 0.0 0
M  V30 8 C 6.9282 -0.5 0.0 0
M  V30 9 C 6.0621 0.9999 0.0 0
M  V30 10 C 1.732 -0.5 0.0 0
M  V30 11 C 2.598 1.0 0.0 0
M  V30 12 C 4.3301 -2.0 0.0 0
M  V30 13 C 7.7942 0.0 0.0 0
M  V30 14 C 6.9282 -1.5 0.0 0
M  V30 15 C 6.9282 1.4999 0.0 0
M  V30 16 C 5.1961 1.5 0.0 0
M  V30 17 C 0.866 0.0 0.0 0
M  V30 18 C 1.732 1.5 0.0 0
M  V30 19 C 7.7942 0.9999 0.0 0
M  V30 20 C 0.0 -0.5 0.0 0
M  V30 END ATOM
M  V30 BEGIN BOND
M  V30 1 2 1 2
M  V30 2 1 2 3
M  V30 3 1 4 2
M  V30 4 1 3 5
M  V30 5 1 4 6 CFG=3
M  V30 6 1 4 7
M  V30 7 2 5 8
M  V30 8 1 5 9
M  V30 9 1 6 10
M  V30 10 1 6 11
M  V30 11 1 7 12
M  V30 12 1 8 13
M  V30 13 1 8 14
M  V30 14 2 9 15
M  V30 15 1 9 16
M  V30 16 1 10 17
M  V30 17 1 11 18
M  V30 18 2 13 19
M  V30 19 1 17 20
M  V30 20 1 15 19
M  V30 END BOND
M  V30 BEGIN COLLECTION
M  V30 MDLV30/STERAC1 ATOMS=(1 4)
M  V30 END COLLECTION
M  V30 END CTAB
M  END
>  <Molecule Name>


>  <status>
DISCONTINUED

>  <cas>
36637-18-0

>  <name>
ETIDOCAINE

>  <ID>
1385

>  <Smiles>
CCCN(CC)C(CC)C(Nc1c(C)cccc1C)=O

$$$$

Actelion Java MolfileCreator 2.0

  0  0  0  0  0  0              0 V3000
M  V30 BEGIN CTAB
M  V30 COUNTS 34 37 0 0 0
M  V30 BEGIN ATOM
M  V30 1 Cl 4.3255 3.7636 0.0 0
M  V30 2 C 5.0526 2.8966 0.0 0 CFG=2
M  V30 3 C 5.3617 3.8476 0.0 0 CFG=2
M  V30 4 C 4.0745 2.6887 0.0 0 CFG=1
M  V30 5 C 5.7218 2.1534 0.0 0 CFG=2
M  V30 6 C 6.3398 4.0556 0.0 0
M  V30 7 C 4.6925 4.5908 0.0 0
M  V30 8 C 4.3835 3.3897 0.0 0
M  V30 9 O 3.4054 3.4318 0.0 0
M  V30 10 C 3.7655 1.7376 0.0 0
M  V30 11 C 5.4128 1.2024 0.0 0 CFG=1
M  V30 12 C 6.6999 2.3614 0.0 0
M  V30 13 C 6.6488 5.0066 0.0 0
M  V30 14 C 7.0089 3.3124 0.0 0 CFG=2
M  V30 15 C 5.0015 5.5418 0.0 0
M  V30 16 C 4.4346 0.9945 0.0 0 CFG=1
M  V30 17 C 5.9128 0.3364 0.0 0
M  V30 18 C 5.9797 5.7498 0.0 0
M  V30 19 F 7.9871 3.5203 0.0 0
M  V30 20 C 4.3301 0.0 0.0 0 CFG=2
M  V30 21 C 3.4835 0.6855 0.0 0
M  V30 22 C 5.2436 -0.4067 0.0 0 CFG=2
M  V30 23 O 6.2887 6.7008 0.0 0
M  V30 24 C 3.4641 -0.5 0.0 0
M  V30 25 C 5.4515 -1.3848 0.0 0
M  V30 26 O 3.4641 -1.5 0.0 0
M  V30 27 C 2.598 0.0 0.0 0
M  V30 28 O 1.732 -0.5 0.0 0
M  V30 29 C 0.866 0.0 0.0 0
M  V30 30 O 0.866 1.0 0.0 0
M  V30 31 C 0.0 -0.5 0.0 0
M  V30 32 C 0.4999 -1.366 0.0 0
M  V30 33 C -0.866 -0.9999 0.0 0
M  V30 34 C -0.4999 0.366 0.0 0
M  V30 END ATOM
M  V30 BEGIN BOND
M  V30 1 1 2 1 CFG=1
M  V30 2 1 3 2
M  V30 3 1 4 2
M  V30 4 1 5 2
M  V30 5 1 3 6
M  V30 6 1 3 7
M  V30 7 1 3 8 CFG=3
M  V30 8 1 4 9 CFG=3
M  V30 9 1 4 10
M  V30 10 1 11 5
M  V30 11 1 5 12 CFG=1
M  V30 12 2 6 13
M  V30 13 1 14 6
M  V30 14 2 7 15
M  V30 15 1 16 10
M  V30 16 1 11 17 CFG=3
M  V30 17 1 13 18
M  V30 18 1 14 19 CFG=1
M  V30 19 1 20 16
M  V30 20 1 16 21 CFG=3
M  V30 21 1 22 17
M  V30 22 2 18 23
M  V30 23 1 20 24 CFG=3
M  V30 24 1 22 25 CFG=1
M  V30 25 2 24 26
M  V30 26 1 24 27
M  V30 27 1 27 28
M  V30 28 1 28 29
M  V30 29 2 29 30
M  V30 30 1 29 31
M  V30 31 1 31 32
M  V30 32 1 31 33
M  V30 33 1 31 34
M  V30 34 1 11 16
M  V30 35 1 12 14
M  V30 36 1 15 18
M  V30 37 1 20 22
M  V30 END BOND
M  V30 BEGIN COLLECTION
M  V30 MDLV30/STERAC1 ATOMS=(9 2 3 4 5 11 14 16 20 22)
M  V30 END COLLECTION
M  V30 END CTAB
M  END
>  <Molecule Name>


>  <status>
-

>  <cas>
34097-16-0

>  <name>
CLOCORTOLONE PIVALATE

>  <ID>
1386

>  <Smiles>
C[C@H](C[C@@H]([C@H](C[C@@H](C([C@]1(C)C=C2)=CC2=O)F)[C@@]11Cl)[C@]2(C)C[C@@H]1O)[C@@H]2C(COC(C(C)(C)C)=O)=O

$$$$
Molecule-1
Actelion Java MolfileCreator 2.0

  0  0  0  0  0  0              0 V3000
M  V30 BEGIN CTAB
M  V30 COUNTS 13 13 0 0 0
M  V30 BEGIN ATOM
M  V30 1 Br 6.4952 1.5 0.0 0
M  V30 2 C 6.4952 0.0 0.0 0
M  V30 3 C 5.1961 -0.75 0.0 0
M  V30 4 C 7.7942 -0.75 0.0 0
M  V30 5 C 5.1961 -2.25 0.0 0
M  V30 6 C 3.8971 0.0 0.0 0
M  V30 7 C 7.7942 -2.25 0.0 0
M  V30 8 C 6.4952 -3.0 0.0 0
M  V30 9 N 2.598 -0.75 0.0 0 CHG=1
M  V30 10 C 1.299 0.0 0.0 0
M  V30 11 C 1.848 -2.049 0.0 0
M  V30 12 C 3.348 -2.049 0.0 0
M  V30 13 C 0.0 -0.75 0.0 0
M  V30 END ATOM
M  V30 BEGIN BOND
M  V30 1 1 1 2
M  V30 2 2 2 3
M  V30 3 1 2 4
M  V30 4 1 3 5
M  V30 5 1 3 6
M  V30 6 2 4 7
M  V30 7 2 5 8
M  V30 8 1 6 9
M  V30 9 1 9 10
M  V30 10 1 9 11
M  V30 11 1 9 12
M  V30 12 1 10 13
M  V30 13 1 7 8
M  V30 END BOND
M  V30 END CTAB
M  END
>  <Molecule Name>
Molecule-1

>  <status>
DISCONTINUED

>  <cas>
59-41-6

>  <name>
BRETYLIUM

>  <ID>
1387

>  <Smiles>
CC[N+](C)(C)Cc(cccc1)c1Br

$$$$

Actelion Java MolfileCreator 2.0

  0  0  0  0  0  0              0 V3000
M  V30 BEGIN CTAB
M  V30 COUNTS 65 67 0 0 0
M  V30 BEGIN ATOM
M  V30 1 O 14.8648 -3.3546 0.0 0
M  V30 2 C 15.8158 -3.6636 0.0 0
M  V30 3 N 16.0237 -4.6418 0.0 0
M  V30 4 C 16.559 -2.9945 0.0 0 CFG=1
M  V30 5 C 16.9748 -4.9508 0.0 0 CFG=2
M  V30 6 N 16.4544 -2.0 0.0 0
M  V30 7 C 17.5371 -3.2024 0.0 0
M  V30 8 C 17.1827 -5.9289 0.0 0
M  V30 9 C 17.7179 -4.2816 0.0 0
M  V30 10 C 15.5884 -1.5 0.0 0
M  V30 11 C 17.368 -1.5932 0.0 0
M  V30 12 C 18.0371 -2.3364 0.0 0
M  V30 13 O 16.4396 -6.598 0.0 0
M  V30 14 O 18.1338 -6.2379 0.0 0 CHG=-1
M  V30 15 O 14.7224 -2.0 0.0 0
M  V30 16 C 15.5884 -0.5 0.0 0 CFG=1
M  V30 17 N 14.7224 0.0 0.0 0
M  V30 18 C 16.4544 0.0 0.0 0
M  V30 19 C 13.8564 -0.5 0.0 0
M  V30 20 C 16.4544 0.9999 0.0 0
M  V30 21 O 13.8564 -1.5 0.0 0
M  V30 22 C 12.9903 0.0 0.0 0 CFG=1
M  V30 23 N 17.2634 1.5877 0.0 0
M  V30 24 C 15.6454 1.5877 0.0 0
M  V30 25 N 12.1243 -0.5 0.0 0
M  V30 26 C 12.9903 0.9999 0.0 0
M  V30 27 C 16.9544 2.5388 0.0 0
M  V30 28 N 15.9544 2.5388 0.0 0
M  V30 29 C 11.2583 0.0 0.0 0
M  V30 30 C 13.8564 1.4999 0.0 0
M  V30 31 C 12.1243 1.4999 0.0 0
M  V30 32 O 11.2583 1.0 0.0 0
M  V30 33 C 10.3923 -0.5 0.0 0 CFG=1
M  V30 34 N 9.5262 0.0 0.0 0
M  V30 35 C 10.3923 -1.4999 0.0 0
M  V30 36 C 8.6602 -0.5 0.0 0
M  V30 37 C 11.2583 -1.9999 0.0 0
M  V30 38 O 8.6602 -1.4999 0.0 0
M  V30 39 C 7.7942 0.0 0.0 0 CFG=1
M  V30 40 C 11.2583 -2.9999 0.0 0
M  V30 41 C 12.1243 -1.5 0.0 0
M  V30 42 N 6.9282 -0.5 0.0 0
M  V30 43 C 7.7942 1.0 0.0 0
M  V30 44 C 12.1243 -3.5 0.0 0
M  V30 45 C 12.9903 -2.0 0.0 0
M  V30 46 C 6.0621 0.0 0.0 0
M  V30 47 C 8.6602 1.4999 0.0 0
M  V30 48 C 6.9282 1.5 0.0 0
M  V30 49 C 12.9903 -3.0 0.0 0
M  V30 50 O 6.0621 0.9999 0.0 0
M  V30 51 C 5.1961 -0.5 0.0 0 CFG=1
M  V30 52 O 13.8564 -3.5 0.0 0
M  V30 53 N 5.1961 -1.5 0.0 0
M  V30 54 C 4.3301 0.0 0.0 0
M  V30 55 C 4.3301 -2.0 0.0 0
M  V30 56 C 3.4641 -0.5 0.0 0
M  V30 57 O 3.4641 -1.5 0.0 0
M  V30 58 C 4.3301 -3.0 0.0 0
M  V30 59 C 2.598 0.0 0.0 0
M  V30 60 N 3.4641 -3.5 0.0 0
M  V30 61 N 1.732 -0.5 0.0 0
M  V30 62 C 3.4641 -4.5 0.0 0
M  V30 63 C 0.866 0.0 0.0 0
M  V30 64 N 0.866 1.0 0.0 0 CHG=1
M  V30 65 N 0.0 -0.5 0.0 0
M  V30 END ATOM
M  V30 BEGIN BOND
M  V30 1 2 1 2
M  V30 2 1 2 3
M  V30 3 1 4 2 CFG=1
M  V30 4 1 5 3 CFG=1
M  V30 5 1 4 6
M  V30 6 1 4 7
M  V30 7 1 5 8
M  V30 8 1 5 9
M  V30 9 1 6 10
M  V30 10 1 6 11
M  V30 11 1 7 12
M  V30 12 2 8 13
M  V30 13 1 8 14
M  V30 14 2 10 15
M  V30 15 1 16 10
M  V30 16 1 16 17 CFG=1
M  V30 17 1 16 18
M  V30 18 1 17 19
M  V30 19 1 18 20
M  V30 20 2 19 21
M  V30 21 1 22 19
M  V30 22 1 20 23
M  V30 23 2 20 24
M  V30 24 1 22 25 CFG=1
M  V30 25 1 22 26
M  V30 26 2 23 27
M  V30 27 1 24 28
M  V30 28 1 25 29
M  V30 29 1 26 30
M  V30 30 1 26 31
M  V30 31 2 29 32
M  V30 32 1 33 29
M  V30 33 1 33 34 CFG=3
M  V30 34 1 33 35
M  V30 35 1 34 36
M  V30 36 1 35 37
M  V30 37 2 36 38
M  V30 38 1 39 36
M  V30 39 2 37 40
M  V30 40 1 37 41
M  V30 41 1 39 42 CFG=1
M  V30 42 1 39 43
M  V30 43 1 40 44
M  V30 44 2 41 45
M  V30 45 1 42 46
M  V30 46 1 43 47
M  V30 47 1 43 48
M  V30 48 2 44 49
M  V30 49 2 46 50
M  V30 50 1 51 46
M  V30 51 1 49 52
M  V30 52 1 51 53 CFG=1
M  V30 53 1 51 54
M  V30 54 1 53 55
M  V30 55 1 54 56
M  V30 56 2 55 57
M  V30 57 1 55 58
M  V30 58 1 56 59
M  V30 59 1 58 60
M  V30 60 1 59 61
M  V30 61 1 60 62
M  V30 62 1 61 63
M  V30 63 2 63 64
M  V30 64 1 63 65
M  V30 65 1 11 12
M  V30 66 1 27 28
M  V30 67 1 45 49
M  V30 END BOND
M  V30 BEGIN COLLECTION
M  V30 MDLV30/STERAC1 ATOMS=(7 4 5 16 22 33 39 51)
M  V30 END COLLECTION
M  V30 END CTAB
M  END
>  <Molecule Name>


>  <status>
DISCONTINUED

>  <cas>
34273-10-4

>  <name>
SARALASIN

>  <ID>
1388

>  <Smiles>
CC(C)[C@@H](C(N[C@@H](Cc1c[nH]cn1)C(N(CCC1)[C@@H]1C(N[C@@H](C)C([O-])=O)=O)=O)=O)NC([C@H](Cc(cc1)ccc1O)NC([C@H](C(C)C)NC([C@H](CCCNC(N)=[NH2+])NC(CNC)=O)=O)=O)=O

$$$$

Actelion Java MolfileCreator 2.0

  0  0  0  0  0  0              0 V3000
M  V30 BEGIN CTAB
M  V30 COUNTS 33 36 0 0 0
M  V30 BEGIN ATOM
M  V30 1 Cl 5.1961 -0.5 0.0 0
M  V30 2 C 4.3301 0.0 0.0 0
M  V30 3 C 3.4641 -0.5 0.0 0
M  V30 4 N 2.598 0.0 0.0 0
M  V30 5 C 2.598 0.9999 0.0 0
M  V30 6 C 1.732 -0.5 0.0 0
M  V30 7 O 1.732 1.5 0.0 0
M  V30 8 O 3.4641 1.4999 0.0 0
M  V30 9 C 0.866 0.0 0.0 0
M  V30 10 C 3.4641 2.4999 0.0 0
M  V30 11 Cl 0.0 -0.5 0.0 0
M  V30 12 C 2.598 3.0 0.0 0
M  V30 13 C 4.3301 2.9999 0.0 0
M  V30 14 C 2.598 4.0 0.0 0
M  V30 15 C 4.3301 3.9999 0.0 0
M  V30 16 C 3.4641 4.5 0.0 0
M  V30 17 C 1.732 4.5 0.0 0
M  V30 18 C 3.4641 5.4999 0.0 0 CFG=2
M  V30 19 C 1.732 5.5 0.0 0
M  V30 20 C 2.598 6.0 0.0 0 CFG=1
M  V30 21 C 4.3301 5.9999 0.0 0
M  V30 22 C 2.598 7.0 0.0 0 CFG=1
M  V30 23 C 4.3301 7.0 0.0 0
M  V30 24 C 3.4641 7.5 0.0 0 CFG=2
M  V30 25 C 1.8549 7.6691 0.0 0
M  V30 26 C 3.2561 8.4781 0.0 0 CFG=2
M  V30 27 C 4.2731 8.0877 0.0 0
M  V30 28 C 2.2616 8.5826 0.0 0
M  V30 29 O 3.9253 9.2212 0.0 0
M  V30 30 P 3.6163 10.1723 0.0 0
M  V30 31 O 4.5673 10.4813 0.0 0
M  V30 32 O 3.3072 11.1234 0.0 0 CHG=-1
M  V30 33 O 2.6652 9.8633 0.0 0 CHG=-1
M  V30 END ATOM
M  V30 BEGIN BOND
M  V30 1 1 1 2
M  V30 2 1 2 3
M  V30 3 1 3 4
M  V30 4 1 4 5
M  V30 5 1 4 6
M  V30 6 2 5 7
M  V30 7 1 5 8
M  V30 8 1 6 9
M  V30 9 1 8 10
M  V30 10 1 9 11
M  V30 11 2 10 12
M  V30 12 1 10 13
M  V30 13 1 12 14
M  V30 14 2 13 15
M  V30 15 2 14 16
M  V30 16 1 14 17
M  V30 17 1 18 16
M  V30 18 1 17 19
M  V30 19 1 20 18
M  V30 20 1 18 21 CFG=3
M  V30 21 1 22 20
M  V30 22 1 21 23
M  V30 23 1 24 22
M  V30 24 1 22 25 CFG=3
M  V30 25 1 26 24
M  V30 26 1 24 27 CFG=3
M  V30 27 1 25 28
M  V30 28 1 26 29 CFG=3
M  V30 29 1 29 30
M  V30 30 2 30 31
M  V30 31 1 30 32
M  V30 32 1 30 33
M  V30 33 1 15 16
M  V30 34 1 20 19 CFG=1
M  V30 35 1 23 24
M  V30 36 1 26 28
M  V30 END BOND
M  V30 BEGIN COLLECTION
M  V30 MDLV30/STERAC1 ATOMS=(5 18 20 22 24 26)
M  V30 END COLLECTION
M  V30 END CTAB
M  END
>  <Molecule Name>


>  <status>
-

>  <cas>
4891-15-0

>  <name>
ESTRAMUSTINE PHOSPHATE

>  <ID>
1389

>  <Smiles>
C[C@](CC1)([C@@H](CC2)[C@H](CC3)[C@H]1c(cc1)c3cc1OC(N(CCCl)CCCl)=O)[C@H]2OP([O-])([O-])=O

$$$$

Actelion Java MolfileCreator 2.0

  0  0  0  0  0  0              0 V3000
M  V30 BEGIN CTAB
M  V30 COUNTS 29 31 0 0 0
M  V30 BEGIN ATOM
M  V30 1 O 3.8301 0.866 0.0 0
M  V30 2 C 4.3301 0.0 0.0 0
M  V30 3 C 3.4641 -0.5 0.0 0
M  V30 4 C 5.1961 0.4999 0.0 0
M  V30 5 C 4.8301 -0.866 0.0 0
M  V30 6 C 2.598 0.0 0.0 0
M  V30 7 C 1.732 -0.5 0.0 0
M  V30 8 C 0.866 0.0 0.0 0 CFG=1
M  V30 9 C 0.866 1.0 0.0 0 CFG=1
M  V30 10 C 0.0 -0.5 0.0 0
M  V30 11 C 1.675 1.5877 0.0 0 CFG=1
M  V30 12 C 0.057 1.5877 0.0 0
M  V30 13 C 1.366 2.5388 0.0 0 CFG=2
M  V30 14 C 2.6531 1.3798 0.0 0
M  V30 15 C 1.8829 0.6096 0.0 0
M  V30 16 C 0.366 2.5388 0.0 0
M  V30 17 C 2.0351 3.2819 0.0 0
M  V30 18 C 3.3223 2.123 0.0 0
M  V30 19 C 1.7261 4.233 0.0 0
M  V30 20 C 3.0133 3.074 0.0 0
M  V30 21 C 2.3952 4.9761 0.0 0
M  V30 22 C 2.0862 5.9272 0.0 0
M  V30 23 C 1.1081 6.1351 0.0 0
M  V30 24 C 2.7553 6.6703 0.0 0
M  V30 25 C 0.4389 5.392 0.0 0
M  V30 26 C 0.799 7.0862 0.0 0
M  V30 27 C 2.4463 7.6214 0.0 0 CFG=1
M  V30 28 C 1.4682 7.8293 0.0 0
M  V30 29 O 3.1154 8.3645 0.0 0
M  V30 END ATOM
M  V30 BEGIN BOND
M  V30 1 1 1 2
M  V30 2 1 2 3
M  V30 3 1 2 4
M  V30 4 1 2 5
M  V30 5 1 3 6
M  V30 6 1 6 7
M  V30 7 1 8 7
M  V30 8 1 9 8
M  V30 9 1 8 10 CFG=3
M  V30 10 1 11 9
M  V30 11 1 9 12 CFG=3
M  V30 12 1 13 11
M  V30 13 1 11 14
M  V30 14 1 11 15 CFG=3
M  V30 15 1 12 16
M  V30 16 1 13 17
M  V30 17 1 14 18
M  V30 18 2 17 19
M  V30 19 1 17 20
M  V30 20 1 19 21
M  V30 21 2 21 22
M  V30 22 1 22 23
M  V30 23 1 22 24
M  V30 24 2 23 25
M  V30 25 1 23 26
M  V30 26 1 27 24
M  V30 27 1 26 28
M  V30 28 1 27 29 CFG=1
M  V30 29 1 13 16 CFG=3
M  V30 30 1 18 20
M  V30 31 1 27 28
M  V30 END BOND
M  V30 BEGIN COLLECTION
M  V30 MDLV30/STERAC1 ATOMS=(5 8 9 11 13 27)
M  V30 END COLLECTION
M  V30 END CTAB
M  END
>  <Molecule Name>


>  <status>
-

>  <cas>
19356-17-3

>  <name>
CALCIFEDIOL

>  <ID>
1390

>  <Smiles>
C[C@@H](CCCC(C)(C)O)[C@H](CC1)[C@](C)(CCC2)[C@H]1/C2=C/C=C(/C[C@@H](CC1)O)\C1=C

$$$$

Actelion Java MolfileCreator 2.0

  0  0  0  0  0  0              0 V3000
M  V30 BEGIN CTAB
M  V30 COUNTS 40 39 0 0 0
M  V30 BEGIN ATOM
M  V30 1 S 8.6602 -0.5 0.0 0
M  V30 2 S 7.7942 0.0 0.0 0
M  V30 3 C 9.5262 0.0 0.0 0
M  V30 4 C 6.9282 -0.5 0.0 0
M  V30 5 C 10.3923 -0.5 0.0 0 CFG=2
M  V30 6 C 6.0621 0.0 0.0 0 CFG=2
M  V30 7 N 11.2583 0.0 0.0 0
M  V30 8 C 10.3923 -1.5 0.0 0
M  V30 9 N 5.1961 -0.5 0.0 0
M  V30 10 C 6.0621 1.0 0.0 0
M  V30 11 C 12.1243 -0.5 0.0 0
M  V30 12 O 11.2583 -2.0 0.0 0
M  V30 13 N 9.5262 -2.0 0.0 0
M  V30 14 C 4.3301 0.0 0.0 0
M  V30 15 O 5.1961 1.5 0.0 0
M  V30 16 N 6.9282 1.5 0.0 0
M  V30 17 O 12.1243 -1.5 0.0 0
M  V30 18 C 12.9903 0.0 0.0 0
M  V30 19 C 9.5262 -3.0 0.0 0
M  V30 20 O 4.3301 1.0 0.0 0
M  V30 21 C 3.4641 -0.5 0.0 0
M  V30 22 C 6.9282 2.5 0.0 0
M  V30 23 C 13.8564 -0.5 0.0 0
M  V30 24 C 8.6602 -3.5 0.0 0
M  V30 25 C 2.598 0.0 0.0 0
M  V30 26 C 7.7942 3.0 0.0 0
M  V30 27 C 14.7224 0.0 0.0 0 CFG=2
M  V30 28 O 7.7942 -3.0 0.0 0
M  V30 29 O 8.6602 -4.5 0.0 0 CHG=-1
M  V30 30 C 1.732 -0.5 0.0 0 CFG=2
M  V30 31 O 8.6602 2.5 0.0 0
M  V30 32 O 7.7942 4.0 0.0 0 CHG=-1
M  V30 33 N 14.7224 1.0 0.0 0
M  V30 34 C 15.5884 -0.5 0.0 0
M  V30 35 N 1.732 -1.5 0.0 0
M  V30 36 C 0.866 0.0 0.0 0
M  V30 37 O 16.4544 0.0 0.0 0
M  V30 38 O 15.5884 -1.5 0.0 0 CHG=-1
M  V30 39 O 0.866 1.0 0.0 0
M  V30 40 O 0.0 -0.5 0.0 0 CHG=-1
M  V30 END ATOM
M  V30 BEGIN BOND
M  V30 1 1 1 2
M  V30 2 1 1 3
M  V30 3 1 2 4
M  V30 4 1 5 3
M  V30 5 1 6 4
M  V30 6 1 5 7 CFG=3
M  V30 7 1 5 8
M  V30 8 1 6 9 CFG=3
M  V30 9 1 6 10
M  V30 10 1 7 11
M  V30 11 2 8 12
M  V30 12 1 8 13
M  V30 13 1 9 14
M  V30 14 2 10 15
M  V30 15 1 10 16
M  V30 16 2 11 17
M  V30 17 1 11 18
M  V30 18 1 13 19
M  V30 19 2 14 20
M  V30 20 1 14 21
M  V30 21 1 16 22
M  V30 22 1 18 23
M  V30 23 1 19 24
M  V30 24 1 21 25
M  V30 25 1 22 26
M  V30 26 1 27 23
M  V30 27 2 24 28
M  V30 28 1 24 29
M  V30 29 1 30 25
M  V30 30 2 26 31
M  V30 31 1 26 32
M  V30 32 1 27 33 CFG=3
M  V30 33 1 27 34
M  V30 34 1 30 35 CFG=3
M  V30 35 1 30 36
M  V30 36 2 34 37
M  V30 37 1 34 38
M  V30 38 2 36 39
M  V30 39 1 36 40
M  V30 END BOND
M  V30 BEGIN COLLECTION
M  V30 MDLV30/STERAC1 ATOMS=(4 5 6 27 30)
M  V30 END COLLECTION
M  V30 END CTAB
M  END
>  <Molecule Name>


>  <status>
-

>  <cas>
27025-41-8

>  <name>
GLUTATHIONE DISULFIDE

>  <ID>
1391

>  <Smiles>
N[C@@H](CCC(N[C@@H](CSSC[C@@H](C(NCC([O-])=O)=O)NC(CC[C@@H](C([O-])=O)N)=O)C(NCC([O-])=O)=O)=O)C([O-])=O

$$$$

Actelion Java MolfileCreator 2.0

  0  0  0  0  0  0              0 V3000
M  V30 BEGIN CTAB
M  V30 COUNTS 23 25 0 0 0
M  V30 BEGIN ATOM
M  V30 1 O 7.7942 3.75 0.0 0
M  V30 2 C 7.7942 2.25 0.0 0
M  V30 3 C 9.0932 4.5 0.0 0
M  V30 4 C 9.0932 1.5 0.0 0
M  V30 5 C 6.4952 1.5 0.0 0
M  V30 6 C 10.3923 3.75 0.0 0 CFG=1
M  V30 7 C 9.8432 5.799 0.0 0
M  V30 8 C 8.3432 5.799 0.0 0
M  V30 9 C 9.0932 0.0 0.0 0
M  V30 10 C 10.3923 2.25 0.0 0 CFG=1
M  V30 11 C 6.4952 0.0 0.0 0
M  V30 12 C 11.6913 4.5 0.0 0
M  V30 13 O 10.3923 -0.75 0.0 0
M  V30 14 C 7.7942 -0.75 0.0 0
M  V30 15 C 11.6913 1.5 0.0 0
M  V30 16 C 5.1961 -0.75 0.0 0
M  V30 17 C 12.9904 3.75 0.0 0
M  V30 18 C 12.9904 2.25 0.0 0
M  V30 19 C 3.8971 0.0 0.0 0
M  V30 20 C 14.2894 1.5 0.0 0
M  V30 21 C 2.598 -0.75 0.0 0
M  V30 22 C 1.299 0.0 0.0 0
M  V30 23 C 0.0 -0.75 0.0 0
M  V30 END ATOM
M  V30 BEGIN BOND
M  V30 1 1 1 2
M  V30 2 1 1 3
M  V30 3 2 2 4
M  V30 4 1 2 5
M  V30 5 1 6 3
M  V30 6 1 3 7
M  V30 7 1 3 8
M  V30 8 1 4 9
M  V30 9 1 10 4
M  V30 10 2 5 11
M  V30 11 1 6 12 CFG=3
M  V30 12 1 9 13
M  V30 13 2 9 14
M  V30 14 1 10 15 CFG=1
M  V30 15 1 11 16
M  V30 16 1 12 17
M  V30 17 2 15 18
M  V30 18 1 16 19
M  V30 19 1 18 20
M  V30 20 1 19 21
M  V30 21 1 21 22
M  V30 22 1 22 23
M  V30 23 1 6 10
M  V30 24 1 11 14
M  V30 25 1 17 18
M  V30 END BOND
M  V30 BEGIN COLLECTION
M  V30 MDLV30/STERAC1 ATOMS=(2 6 10)
M  V30 END COLLECTION
M  V30 END CTAB
M  END
>  <Molecule Name>


>  <status>
-

>  <cas>
1972-08-3

>  <name>
DRONABINOL

>  <ID>
1392

>  <Smiles>
CCCCCc1cc(OC(C)(C)[C@H]2[C@H]3C=C(C)CC2)c3c(O)c1

$$$$
Molecule-1
Actelion Java MolfileCreator 2.0

  0  0  0  0  0  0              0 V3000
M  V30 BEGIN CTAB
M  V30 COUNTS 14 15 0 0 0
M  V30 BEGIN ATOM
M  V30 1 O 1.299 0.0 0.0 0
M  V30 2 C 0.0 -0.75 0.0 0
M  V30 3 N -1.299 0.0 0.0 0
M  V30 4 C 0.0 -2.25 0.0 0
M  V30 5 C -2.598 -0.7499 0.0 0
M  V30 6 N 1.299 -3.0 0.0 0
M  V30 7 C -1.299 -2.9999 0.0 0
M  V30 8 C -2.598 -2.2499 0.0 0
M  V30 9 C -3.8971 -2.9999 0.0 0
M  V30 10 C -5.1961 -2.2499 0.0 0
M  V30 11 C -3.8971 -4.4999 0.0 0
M  V30 12 C -6.4951 -2.9999 0.0 0
M  V30 13 C -5.1961 -5.2499 0.0 0
M  V30 14 N -6.4951 -4.4999 0.0 0
M  V30 END ATOM
M  V30 BEGIN BOND
M  V30 1 2 1 2
M  V30 2 1 2 3
M  V30 3 1 2 4
M  V30 4 1 3 5
M  V30 5 1 4 6
M  V30 6 2 4 7
M  V30 7 2 5 8
M  V30 8 1 8 9
M  V30 9 2 9 10
M  V30 10 1 9 11
M  V30 11 1 10 12
M  V30 12 2 11 13
M  V30 13 2 12 14
M  V30 14 1 7 8
M  V30 15 1 13 14
M  V30 END BOND
M  V30 END CTAB
M  END
>  <Molecule Name>
Molecule-1

>  <status>
-

>  <cas>
60719-84-8

>  <name>
INAMRINONE

>  <ID>
1393

>  <Smiles>
NC1=CC(c2ccncc2)=CNC1=O

$$$$

Actelion Java MolfileCreator 2.0

  0  0  0  0  0  0              0 V3000
M  V30 BEGIN CTAB
M  V30 COUNTS 36 39 0 0 0
M  V30 BEGIN ATOM
M  V30 1 Cl 1.9801 4.008 0.0 0
M  V30 2 C 1.5912 2.5565 0.0 0 CFG=1
M  V30 3 C 2.6537 1.494 0.0 0 CFG=2
M  V30 4 C 0.1398 2.1676 0.0 0
M  V30 5 C 2.2648 0.0426 0.0 0 CFG=1
M  V30 6 C 4.1052 1.8829 0.0 0 CFG=1
M  V30 7 C -0.249 0.7162 0.0 0
M  V30 8 C 0.8134 -0.3462 0.0 0 CFG=2
M  V30 9 C 3.3274 -1.0198 0.0 0 CFG=1
M  V30 10 C 5.1677 0.8204 0.0 0 CFG=2
M  V30 11 C 4.7874 3.2218 0.0 0
M  V30 12 C -1.7005 0.3273 0.0 0
M  V30 13 C 0.4245 -1.7977 0.0 0
M  V30 14 C 1.8759 -1.4088 0.0 0
M  V30 15 O 2.9384 -2.4713 0.0 0
M  V30 16 C 4.7046 -0.61 0.0 0
M  V30 17 C 6.5066 1.5026 0.0 0 CFG=1
M  V30 18 C 6.2511 -0.3364 0.0 0
M  V30 19 C 6.2715 2.9867 0.0 0 CFG=2
M  V30 20 C -2.0894 -1.1241 0.0 0
M  V30 21 C -1.0269 -2.1866 0.0 0
M  V30 22 O 7.8454 0.8204 0.0 0
M  V30 23 C 6.6288 0.1144 0.0 0
M  V30 24 C 7.334 4.0493 0.0 0
M  V30 25 O -3.5408 -1.513 0.0 0
M  V30 26 C 9.1057 1.6388 0.0 0
M  V30 27 O 7.8079 -0.7513 0.0 0
M  V30 28 C 5.3536 -0.7931 0.0 0
M  V30 29 O 9.027 3.1394 0.0 0
M  V30 30 C 10.4445 0.9566 0.0 0
M  V30 31 O 5.2053 -2.2539 0.0 0
M  V30 32 C 11.7047 1.775 0.0 0
M  V30 33 C 6.5066 -3.0052 0.0 0
M  V30 34 O 6.5066 -4.5079 0.0 0
M  V30 35 C 7.8079 -2.2539 0.0 0
M  V30 36 C 9.1092 -3.0052 0.0 0
M  V30 END ATOM
M  V30 BEGIN BOND
M  V30 1 1 2 1 CFG=1
M  V30 2 1 3 2 CFG=1
M  V30 3 1 2 4
M  V30 4 1 5 3 CFG=3
M  V30 5 1 6 3
M  V30 6 1 4 7
M  V30 7 1 8 5
M  V30 8 1 9 5
M  V30 9 1 10 6
M  V30 10 1 6 11 CFG=3
M  V30 11 2 7 12
M  V30 12 1 8 13
M  V30 13 1 8 14 CFG=3
M  V30 14 1 9 15 CFG=3
M  V30 15 1 9 16
M  V30 16 1 17 10
M  V30 17 1 10 18 CFG=3
M  V30 18 1 19 11
M  V30 19 1 12 20
M  V30 20 2 13 21
M  V30 21 1 17 22
M  V30 22 1 17 23 CFG=3
M  V30 23 1 19 24 CFG=1
M  V30 24 2 20 25
M  V30 25 1 22 26
M  V30 26 2 23 27
M  V30 27 1 23 28
M  V30 28 2 26 29
M  V30 29 1 26 30
M  V30 30 1 28 31
M  V30 31 1 30 32
M  V30 32 1 31 33
M  V30 33 2 33 34
M  V30 34 1 33 35
M  V30 35 1 35 36
M  V30 36 1 7 8
M  V30 37 1 10 16
M  V30 38 1 17 19
M  V30 39 1 20 21
M  V30 END BOND
M  V30 BEGIN COLLECTION
M  V30 MDLV30/STERAC1 ATOMS=(9 2 3 5 6 8 9 10 17 19)
M  V30 END COLLECTION
M  V30 END CTAB
M  END
>  <Molecule Name>


>  <status>
-

>  <cas>
66734-13-2

>  <name>
ALCLOMETASONE DIPROPIONATE

>  <ID>
1394

>  <Smiles>
CCC(OCC([C@@]([C@H](C)C1)([C@@](C)(C[C@@H]2O)[C@@H]1[C@H]([C@@H](C1)Cl)[C@H]2[C@@](C)(C=C2)C1=CC2=O)OC(CC)=O)=O)=O

$$$$

Actelion Java MolfileCreator 2.0

  0  0  0  0  0  0              0 V3000
M  V30 BEGIN CTAB
M  V30 COUNTS 46 52 0 0 0
M  V30 BEGIN ATOM
M  V30 1 P 2.598 -0.75 0.0 0
M  V30 2 O 1.848 -2.049 0.0 0
M  V30 3 O 1.299 0.0 0.0 0
M  V30 4 O 3.8971 -1.5 0.0 0 CHG=-1
M  V30 5 O 3.348 0.549 0.0 0 CHG=-1
M  V30 6 C 0.0 -0.75 0.0 0
M  V30 7 C -1.299 0.0 0.0 0
M  V30 8 C 0.0 -2.2499 0.0 0
M  V30 9 O -1.299 1.5 0.0 0
M  V30 10 C -2.598 -0.7499 0.0 0
M  V30 11 O 1.299 -3.0 0.0 0
M  V30 12 C -1.299 -2.9999 0.0 0
M  V30 13 C -2.598 2.25 0.0 0
M  V30 14 C -2.598 -2.2499 0.0 0
M  V30 15 C 1.299 -4.5 0.0 0
M  V30 16 C -3.8971 -2.9999 0.0 0 CFG=1
M  V30 17 C -3.8971 -4.4999 0.0 0
M  V30 18 C -5.1961 -2.2499 0.0 0 CFG=2
M  V30 19 C -5.1961 -5.2499 0.0 0
M  V30 20 C -2.598 -5.25 0.0 0
M  V30 21 C -5.508 -0.7827 0.0 0
M  V30 22 C -6.4951 -2.9999 0.0 0 CFG=2
M  V30 23 C -5.1961 -6.7499 0.0 0
M  V30 24 C -6.4951 -4.4999 0.0 0 CFG=1
M  V30 25 C -2.598 -6.75 0.0 0
M  V30 26 O -4.5043 0.3319 0.0 0
M  V30 27 O -6.9998 -0.6259 0.0 0
M  V30 28 C -7.6099 -1.9963 0.0 0
M  V30 29 C -3.8971 -7.4999 0.0 0
M  V30 30 O -7.7942 -5.2499 0.0 0
M  V30 31 O -1.4833 -7.7536 0.0 0
M  V30 32 O -3.5852 -8.9672 0.0 0
M  V30 33 C -9.0932 -4.4999 0.0 0 CFG=1
M  V30 34 C -2.0934 -9.124 0.0 0
M  V30 35 O -9.0932 -3.0 0.0 0
M  V30 36 C -10.3923 -5.25 0.0 0 CFG=1
M  V30 37 C -10.3923 -2.25 0.0 0 CFG=2
M  V30 38 O -10.3923 -6.75 0.0 0
M  V30 39 C -11.6913 -4.5 0.0 0 CFG=1
M  V30 40 C -11.6913 -3.0 0.0 0 CFG=1
M  V30 41 C -10.3923 -0.75 0.0 0
M  V30 42 O -12.9903 -5.25 0.0 0
M  V30 43 O -12.9903 -2.25 0.0 0
M  V30 44 O -11.6913 0.0 0.0 0
M  V30 45 C -12.9903 -0.75 0.0 0 CFG=2
M  V30 46 C -14.2894 0.0 0.0 0
M  V30 END ATOM
M  V30 BEGIN BOND
M  V30 1 2 1 2
M  V30 2 1 1 3
M  V30 3 1 1 4
M  V30 4 1 1 5
M  V30 5 1 3 6
M  V30 6 2 6 7
M  V30 7 1 6 8
M  V30 8 1 7 9
M  V30 9 1 7 10
M  V30 10 1 8 11
M  V30 11 2 8 12
M  V30 12 1 9 13
M  V30 13 2 10 14
M  V30 14 1 11 15
M  V30 15 1 16 14 CFG=1
M  V30 16 1 16 17
M  V30 17 1 18 16
M  V30 18 2 17 19
M  V30 19 1 17 20
M  V30 20 1 18 21 CFG=1
M  V30 21 1 22 18
M  V30 22 1 19 23
M  V30 23 1 24 19
M  V30 24 2 20 25
M  V30 25 2 21 26
M  V30 26 1 21 27
M  V30 27 1 22 28 CFG=3
M  V30 28 2 23 29
M  V30 29 1 24 30 CFG=3
M  V30 30 1 25 31
M  V30 31 1 29 32
M  V30 32 1 33 30 CFG=3
M  V30 33 1 31 34
M  V30 34 1 33 35
M  V30 35 1 36 33
M  V30 36 1 37 35 CFG=3
M  V30 37 1 36 38 CFG=1
M  V30 38 1 39 36
M  V30 39 1 40 37
M  V30 40 1 37 41
M  V30 41 1 39 42 CFG=3
M  V30 42 1 40 43 CFG=1
M  V30 43 1 41 44
M  V30 44 1 45 43
M  V30 45 1 45 46 CFG=1
M  V30 46 1 12 14
M  V30 47 1 22 24
M  V30 48 1 25 29
M  V30 49 1 27 28
M  V30 50 1 32 34
M  V30 51 1 39 40
M  V30 52 1 44 45
M  V30 END BOND
M  V30 BEGIN COLLECTION
M  V30 MDLV30/STERAC1 ATOMS=(10 16 18 22 24 33 36 37 39 40 45)
M  V30 END COLLECTION
M  V30 END CTAB
M  END
>  <Molecule Name>


>  <status>
-

>  <cas>
117091-64-2

>  <name>
ETOPOSIDE PHOSPHATE

>  <ID>
1395

>  <Smiles>
C[C@@H](OC[C@@H]1O[C@@H]([C@H]2O)O[C@H]([C@H](CO3)[C@H]([C@H]4c(cc5OC)cc(OC)c5OP([O-])([O-])=O)C3=O)c3c4cc4OCOc4c3)O[C@@H]1[C@H]2O

$$$$

Actelion Java MolfileCreator 2.0

  0  0  0  0  0  0              0 V3000
M  V30 BEGIN CTAB
M  V30 COUNTS 25 26 0 0 0
M  V30 BEGIN ATOM
M  V30 1 O 8.1346 -1.6939 0.0 0
M  V30 2 C 7.1836 -1.3848 0.0 0
M  V30 3 O 6.4404 -2.054 0.0 0 CHG=-1
M  V30 4 C 6.9757 -0.4067 0.0 0 CFG=1
M  V30 5 N 6.0621 0.0 0.0 0
M  V30 6 C 7.6448 0.3364 0.0 0
M  V30 7 C 5.1961 -0.5 0.0 0
M  V30 8 C 6.1667 0.9945 0.0 0
M  V30 9 C 7.1448 1.2024 0.0 0
M  V30 10 O 5.1961 -1.4999 0.0 0
M  V30 11 C 4.3301 0.0 0.0 0 CFG=1
M  V30 12 N 3.4641 -0.5 0.0 0
M  V30 13 C 4.3301 1.0 0.0 0
M  V30 14 C 2.598 0.0 0.0 0 CFG=2
M  V30 15 C 2.598 1.0 0.0 0
M  V30 16 C 1.732 -0.5 0.0 0
M  V30 17 O 3.4641 1.4999 0.0 0
M  V30 18 O 1.732 1.5 0.0 0 CHG=-1
M  V30 19 C 0.866 0.0 0.0 0
M  V30 20 C 0.0 -0.5 0.0 0
M  V30 21 C -0.866 0.0 0.0 0
M  V30 22 C 0.0 -1.4999 0.0 0
M  V30 23 C -1.732 -0.4999 0.0 0
M  V30 24 C -0.866 -1.9999 0.0 0
M  V30 25 C -1.732 -1.4999 0.0 0
M  V30 END ATOM
M  V30 BEGIN BOND
M  V30 1 2 1 2
M  V30 2 1 2 3
M  V30 3 1 4 2 CFG=1
M  V30 4 1 4 5
M  V30 5 1 4 6
M  V30 6 1 5 7
M  V30 7 1 5 8
M  V30 8 1 6 9
M  V30 9 2 7 10
M  V30 10 1 11 7
M  V30 11 1 11 12 CFG=1
M  V30 12 1 11 13
M  V30 13 1 14 12 CFG=1
M  V30 14 1 14 15
M  V30 15 1 14 16
M  V30 16 2 15 17
M  V30 17 1 15 18
M  V30 18 1 16 19
M  V30 19 1 19 20
M  V30 20 2 20 21
M  V30 21 1 20 22
M  V30 22 1 21 23
M  V30 23 2 22 24
M  V30 24 2 23 25
M  V30 25 1 8 9
M  V30 26 1 24 25
M  V30 END BOND
M  V30 BEGIN COLLECTION
M  V30 MDLV30/STERAC1 ATOMS=(3 4 11 14)
M  V30 END COLLECTION
M  V30 END CTAB
M  END
>  <Molecule Name>


>  <status>
-

>  <cas>
76420-72-9

>  <name>
ENALAPRILAT

>  <ID>
1396

>  <Smiles>
C[C@@H](C(N(CCC1)[C@@H]1C([O-])=O)=O)N[C@@H](CCc1ccccc1)C([O-])=O

$$$$

Actelion Java MolfileCreator 2.0

  0  0  0  0  0  0              0 V3000
M  V30 BEGIN CTAB
M  V30 COUNTS 10 9 0 0 0
M  V30 BEGIN ATOM
M  V30 1 S 5.1961 -0.5 0.0 0
M  V30 2 C 4.3301 0.0 0.0 0 CFG=2
M  V30 3 C 3.4641 -0.5 0.0 0
M  V30 4 C 4.3301 1.0 0.0 0
M  V30 5 O 3.4641 -1.5 0.0 0
M  V30 6 N 2.598 0.0 0.0 0
M  V30 7 C 1.732 -0.5 0.0 0
M  V30 8 C 0.866 0.0 0.0 0
M  V30 9 O 0.866 1.0 0.0 0
M  V30 10 O 0.0 -0.5 0.0 0 CHG=-1
M  V30 END ATOM
M  V30 BEGIN BOND
M  V30 1 1 2 1 CFG=3
M  V30 2 1 2 3
M  V30 3 1 2 4
M  V30 4 2 3 5
M  V30 5 1 3 6
M  V30 6 1 6 7
M  V30 7 1 7 8
M  V30 8 2 8 9
M  V30 9 1 8 10
M  V30 END BOND
M  V30 BEGIN COLLECTION
M  V30 MDLV30/STERAC1 ATOMS=(1 2)
M  V30 END COLLECTION
M  V30 END CTAB
M  END
>  <Molecule Name>


>  <status>
-

>  <cas>
1953-02-2

>  <name>
TIOPRONIN

>  <ID>
1397

>  <Smiles>
CC(C(NCC([O-])=O)=O)S

$$$$

Actelion Java MolfileCreator 2.0

  0  0  0  0  0  0              0 V3000
M  V30 BEGIN CTAB
M  V30 COUNTS 10 9 0 0 0
M  V30 BEGIN ATOM
M  V30 1 S 5.1961 -0.5 0.0 0
M  V30 2 C 4.3301 0.0 0.0 0 CFG=2
M  V30 3 C 3.4641 -0.5 0.0 0
M  V30 4 C 4.3301 1.0 0.0 0
M  V30 5 O 3.4641 -1.5 0.0 0
M  V30 6 N 2.598 0.0 0.0 0
M  V30 7 C 1.732 -0.5 0.0 0
M  V30 8 C 0.866 0.0 0.0 0
M  V30 9 O 0.866 1.0 0.0 0
M  V30 10 O 0.0 -0.5 0.0 0 CHG=-1
M  V30 END ATOM
M  V30 BEGIN BOND
M  V30 1 1 2 1 CFG=3
M  V30 2 1 2 3
M  V30 3 1 2 4
M  V30 4 2 3 5
M  V30 5 1 3 6
M  V30 6 1 6 7
M  V30 7 1 7 8
M  V30 8 2 8 9
M  V30 9 1 8 10
M  V30 END BOND
M  V30 BEGIN COLLECTION
M  V30 MDLV30/STERAC1 ATOMS=(1 2)
M  V30 END COLLECTION
M  V30 END CTAB
M  END
>  <Molecule Name>


>  <status>
-

>  <cas>
1953-02-2

>  <name>
TIOPRONIN

>  <ID>
1398

>  <Smiles>
CC(C(NCC([O-])=O)=O)S

$$$$

Actelion Java MolfileCreator 2.0

  0  0  0  0  0  0              0 V3000
M  V30 BEGIN CTAB
M  V30 COUNTS 11 11 0 0 0
M  V30 BEGIN ATOM
M  V30 1 O 2.598 -0.75 0.0 0
M  V30 2 C 1.299 0.0 0.0 0
M  V30 3 O 1.299 1.5 0.0 0 CHG=-1
M  V30 4 C 0.0 -0.75 0.0 0
M  V30 5 C -1.299 0.0 0.0 0
M  V30 6 C 0.0 -2.2499 0.0 0
M  V30 7 O -1.299 1.5 0.0 0
M  V30 8 C -2.598 -0.7499 0.0 0
M  V30 9 C -1.299 -2.9999 0.0 0
M  V30 10 C -2.598 -2.2499 0.0 0
M  V30 11 N -1.299 -4.4999 0.0 0
M  V30 END ATOM
M  V30 BEGIN BOND
M  V30 1 2 1 2
M  V30 2 1 2 3
M  V30 3 1 2 4
M  V30 4 2 4 5
M  V30 5 1 4 6
M  V30 6 1 5 7
M  V30 7 1 5 8
M  V30 8 2 6 9
M  V30 9 2 8 10
M  V30 10 1 9 11
M  V30 11 1 9 10
M  V30 END BOND
M  V30 END CTAB
M  END
>  <Molecule Name>


>  <status>
-

>  <cas>
89-57-6

>  <name>
MESALAMINE

>  <ID>
1399

>  <Smiles>
Nc(cc1)cc(C([O-])=O)c1O

$$$$
Molecule-1
Actelion Java MolfileCreator 2.0

  0  0  0  0  0  0              0 V3000
M  V30 BEGIN CTAB
M  V30 COUNTS 26 28 0 0 0
M  V30 BEGIN ATOM
M  V30 1 O 8.6602 -0.5 0.0 0
M  V30 2 C 7.7942 0.0 0.0 0
M  V30 3 O 7.7942 0.9999 0.0 0 CHG=-1
M  V30 4 C 6.9282 -0.5 0.0 0
M  V30 5 C 6.0621 0.0 0.0 0
M  V30 6 C 5.1961 -0.5 0.0 0
M  V30 7 N 4.3301 0.0 0.0 0
M  V30 8 C 5.1961 -1.4999 0.0 0
M  V30 9 C 3.4641 -0.5 0.0 0
M  V30 10 C 4.3301 -1.9999 0.0 0
M  V30 11 C 2.598 0.0 0.0 0
M  V30 12 C 3.4641 -1.4999 0.0 0
M  V30 13 C 2.598 1.0 0.0 0
M  V30 14 C 1.732 -0.5 0.0 0
M  V30 15 C 3.4641 1.5 0.0 0
M  V30 16 C 1.732 1.4999 0.0 0
M  V30 17 C 0.866 0.0 0.0 0
M  V30 18 C 3.4641 2.5 0.0 0
M  V30 19 C 1.732 2.5 0.0 0
M  V30 20 N 0.0 -0.5 0.0 0
M  V30 21 C 2.598 3.0 0.0 0
M  V30 22 C -0.9135 -0.0932 0.0 0
M  V30 23 C -0.1045 -1.4945 0.0 0
M  V30 24 C 2.598 4.0 0.0 0
M  V30 25 C -1.5826 -0.8364 0.0 0
M  V30 26 C -1.0826 -1.7024 0.0 0
M  V30 END ATOM
M  V30 BEGIN BOND
M  V30 1 2 1 2
M  V30 2 1 2 3
M  V30 3 1 2 4
M  V30 4 2 4 5
M  V30 5 1 5 6
M  V30 6 2 6 7
M  V30 7 1 6 8
M  V30 8 1 7 9
M  V30 9 2 8 10
M  V30 10 1 9 11
M  V30 11 2 9 12
M  V30 12 1 11 13
M  V30 13 2 11 14
M  V30 14 2 13 15
M  V30 15 1 13 16
M  V30 16 1 14 17
M  V30 17 1 15 18
M  V30 18 2 16 19
M  V30 19 1 17 20
M  V30 20 2 18 21
M  V30 21 1 20 22
M  V30 22 1 20 23
M  V30 23 1 21 24
M  V30 24 1 22 25
M  V30 25 1 23 26
M  V30 26 1 10 12
M  V30 27 1 19 21
M  V30 28 1 25 26
M  V30 END BOND
M  V30 END CTAB
M  END
>  <Molecule Name>
Molecule-1

>  <status>
DISCONTINUED

>  <cas>
87848-99-5

>  <name>
ACRIVASTINE

>  <ID>
1400

>  <Smiles>
Cc(cc1)ccc1/C(/c1cccc(/C=C/C([O-])=O)n1)=C\CN1CCCC1

$$$$

Actelion Java MolfileCreator 2.0

  0  0  0  0  0  0              0 V3000
M  V30 BEGIN CTAB
M  V30 COUNTS 96 103 0 0 0
M  V30 BEGIN ATOM
M  V30 1 O 23.3618 4.7318 0.0 0
M  V30 2 C 22.3672 4.8364 0.0 0
M  V30 3 N 21.6981 4.0932 0.0 0
M  V30 4 C 21.8672 5.7024 0.0 0
M  V30 5 C 20.7846 4.4999 0.0 0 CFG=1
M  V30 6 C 20.8891 5.4945 0.0 0
M  V30 7 C 19.9185 4.0 0.0 0
M  V30 8 O 19.0525 4.5 0.0 0
M  V30 9 N 19.9185 2.9999 0.0 0
M  V30 10 C 19.0525 2.5 0.0 0 CFG=2
M  V30 11 C 18.1865 3.0 0.0 0
M  V30 12 C 19.0525 1.5 0.0 0
M  V30 13 O 18.1865 4.0 0.0 0
M  V30 14 N 17.3205 2.5 0.0 0
M  V30 15 C 19.9185 1.0 0.0 0
M  V30 16 C 16.4544 3.0 0.0 0 CFG=2
M  V30 17 N 20.0231 0.0054 0.0 0
M  V30 18 C 20.8321 1.4067 0.0 0
M  V30 19 C 15.5884 2.5 0.0 0
M  V30 20 C 16.4544 4.0 0.0 0
M  V30 21 C 21.0012 -0.2024 0.0 0
M  V30 22 N 21.5012 0.6635 0.0 0
M  V30 23 O 14.7224 3.0 0.0 0
M  V30 24 N 15.5884 1.5 0.0 0
M  V30 25 C 15.5884 4.5 0.0 0
M  V30 26 C 14.7224 1.0 0.0 0 CFG=2
M  V30 27 C 15.4839 5.4945 0.0 0
M  V30 28 C 14.6749 4.0932 0.0 0
M  V30 29 C 13.8564 1.5 0.0 0
M  V30 30 C 14.7224 0.0 0.0 0
M  V30 31 C 14.5057 5.7024 0.0 0
M  V30 32 C 16.153 6.2376 0.0 0
M  V30 33 N 14.0057 4.8364 0.0 0
M  V30 34 O 13.8564 2.5 0.0 0
M  V30 35 N 12.9903 1.0 0.0 0
M  V30 36 O 15.5884 -0.4999 0.0 0
M  V30 37 C 14.1967 6.6534 0.0 0
M  V30 38 C 15.844 7.1887 0.0 0
M  V30 39 C 12.9903 0.0 0.0 0 CFG=2
M  V30 40 C 14.8658 7.3966 0.0 0
M  V30 41 C 12.1243 -0.5 0.0 0
M  V30 42 C 13.8564 -0.5 0.0 0
M  V30 43 O 12.1243 -1.5 0.0 0
M  V30 44 N 11.2583 0.0 0.0 0
M  V30 45 C 13.8564 -1.5 0.0 0
M  V30 46 C 10.3923 -0.5 0.0 0 CFG=1
M  V30 47 C 14.7224 -1.9999 0.0 0
M  V30 48 C 12.9903 -2.0 0.0 0
M  V30 49 C 10.3923 -1.4999 0.0 0
M  V30 50 C 9.5262 0.0 0.0 0
M  V30 51 C 14.7224 -3.0 0.0 0
M  V30 52 C 12.9903 -3.0 0.0 0
M  V30 53 O 11.2583 -1.9999 0.0 0
M  V30 54 N 9.5262 -1.9999 0.0 0
M  V30 55 C 9.5262 0.9999 0.0 0
M  V30 56 C 13.8564 -3.5 0.0 0
M  V30 57 C 9.5262 -2.9999 0.0 0 CFG=2
M  V30 58 N 8.7172 1.5877 0.0 0
M  V30 59 C 10.3352 1.5877 0.0 0
M  V30 60 O 13.8564 -4.5 0.0 0
M  V30 61 C 8.6602 -3.4999 0.0 0
M  V30 62 C 10.3923 -3.5 0.0 0
M  V30 63 C 9.0262 2.5388 0.0 0
M  V30 64 N 10.0262 2.5388 0.0 0
M  V30 65 O 8.6602 -4.5 0.0 0
M  V30 66 N 7.7942 -2.9999 0.0 0
M  V30 67 C 10.3923 -4.5 0.0 0
M  V30 68 C 10.614 3.3478 0.0 0
M  V30 69 C 6.9282 -3.4999 0.0 0 CFG=2
M  V30 70 C 9.5262 -5.0 0.0 0
M  V30 71 C 11.2583 -5.0 0.0 0
M  V30 72 C 10.2073 4.2614 0.0 0
M  V30 73 C 6.0621 -2.9999 0.0 0
M  V30 74 C 6.9282 -4.4999 0.0 0
M  V30 75 C 10.7951 5.0704 0.0 0
M  V30 76 C 9.2128 4.3659 0.0 0
M  V30 77 O 5.1961 -3.4999 0.0 0
M  V30 78 N 6.0621 -1.9999 0.0 0
M  V30 79 C 6.0621 -5.0 0.0 0
M  V30 80 C 10.3883 5.9839 0.0 0
M  V30 81 C 8.806 5.2794 0.0 0
M  V30 82 C 5.2531 -1.4122 0.0 0 CFG=2
M  V30 83 C 6.8711 -1.4122 0.0 0
M  V30 84 C 6.0621 -5.9999 0.0 0
M  V30 85 C 9.3938 6.0884 0.0 0
M  V30 86 C 4.3021 -1.7212 0.0 0
M  V30 87 C 5.5621 -0.4611 0.0 0
M  V30 88 C 6.5621 -0.4611 0.0 0
M  V30 89 N 5.1961 -6.4999 0.0 0
M  V30 90 O 4.0941 -2.6993 0.0 0
M  V30 91 N 3.5589 -1.0521 0.0 0
M  V30 92 C 5.1961 -7.4999 0.0 0
M  V30 93 C 2.6079 -1.3611 0.0 0
M  V30 94 N 6.0621 -7.9999 0.0 0 CHG=1
M  V30 95 N 4.3301 -7.9999 0.0 0
M  V30 96 C 2.3999 -2.3392 0.0 0
M  V30 END ATOM
M  V30 BEGIN BOND
M  V30 1 2 1 2
M  V30 2 1 2 3
M  V30 3 1 2 4
M  V30 4 1 5 3
M  V30 5 1 4 6
M  V30 6 1 5 7 CFG=3
M  V30 7 2 7 8
M  V30 8 1 7 9
M  V30 9 1 10 9 CFG=1
M  V30 10 1 10 11
M  V30 11 1 10 12
M  V30 12 2 11 13
M  V30 13 1 11 14
M  V30 14 1 12 15
M  V30 15 1 16 14 CFG=3
M  V30 16 1 15 17
M  V30 17 2 15 18
M  V30 18 1 16 19
M  V30 19 1 16 20
M  V30 20 2 17 21
M  V30 21 1 18 22
M  V30 22 2 19 23
M  V30 23 1 19 24
M  V30 24 1 20 25
M  V30 25 1 26 24 CFG=1
M  V30 26 1 25 27
M  V30 27 2 25 28
M  V30 28 1 26 29
M  V30 29 1 26 30
M  V30 30 2 27 31
M  V30 31 1 27 32
M  V30 32 1 28 33
M  V30 33 2 29 34
M  V30 34 1 29 35
M  V30 35 1 30 36
M  V30 36 1 31 37
M  V30 37 2 32 38
M  V30 38 1 39 35 CFG=1
M  V30 39 2 37 40
M  V30 40 1 39 41
M  V30 41 1 39 42
M  V30 42 2 41 43
M  V30 43 1 41 44
M  V30 44 1 42 45
M  V30 45 1 46 44 CFG=1
M  V30 46 2 45 47
M  V30 47 1 45 48
M  V30 48 1 46 49
M  V30 49 1 46 50
M  V30 50 1 47 51
M  V30 51 2 48 52
M  V30 52 2 49 53
M  V30 53 1 49 54
M  V30 54 1 50 55
M  V30 55 2 51 56
M  V30 56 1 57 54 CFG=1
M  V30 57 1 55 58
M  V30 58 2 55 59
M  V30 59 1 56 60
M  V30 60 1 57 61
M  V30 61 1 57 62
M  V30 62 2 58 63
M  V30 63 1 59 64
M  V30 64 2 61 65
M  V30 65 1 61 66
M  V30 66 1 62 67
M  V30 67 1 64 68
M  V30 68 1 69 66 CFG=1
M  V30 69 1 67 70
M  V30 70 1 67 71
M  V30 71 1 68 72
M  V30 72 1 69 73
M  V30 73 1 69 74
M  V30 74 2 72 75
M  V30 75 1 72 76
M  V30 76 2 73 77
M  V30 77 1 73 78
M  V30 78 1 74 79
M  V30 79 1 75 80
M  V30 80 2 76 81
M  V30 81 1 82 78
M  V30 82 1 78 83
M  V30 83 1 79 84
M  V30 84 2 80 85
M  V30 85 1 82 86 CFG=3
M  V30 86 1 82 87
M  V30 87 1 83 88
M  V30 88 1 84 89
M  V30 89 2 86 90
M  V30 90 1 86 91
M  V30 91 1 89 92
M  V30 92 1 91 93
M  V30 93 2 92 94
M  V30 94 1 92 95
M  V30 95 1 93 96
M  V30 96 1 5 6
M  V30 97 1 21 22
M  V30 98 1 31 33
M  V30 99 1 38 40
M  V30 100 1 52 56
M  V30 101 1 63 64
M  V30 102 1 81 85
M  V30 103 1 87 88
M  V30 END BOND
M  V30 BEGIN COLLECTION
M  V30 MDLV30/STERAC1 ATOMS=(9 5 10 16 26 39 46 57 69 82)
M  V30 END COLLECTION
M  V30 END CTAB
M  END
>  <Molecule Name>


>  <status>
-

>  <cas>
76712-82-8

>  <name>
HISTRELIN

>  <ID>
1401

>  <Smiles>
CCNC([C@H](CCC1)N1C([C@H](CCCNC(N)=[NH2+])NC([C@H](CC(C)C)NC([C@@H](Cc1cn(Cc2ccccc2)cn1)NC([C@H](Cc(cc1)ccc1O)NC([C@H](CO)NC([C@H](Cc1c[nH]c2c1cccc2)NC([C@H](Cc1c[nH]cn1)NC([C@H](CC1)NC1=O)=O)=O)=O)=O)=O)=O)=O)=O)=O

$$$$

Actelion Java MolfileCreator 2.0

  0  0  0  0  0  0              0 V3000
M  V30 BEGIN CTAB
M  V30 COUNTS 12 11 0 0 0
M  V30 BEGIN ATOM
M  V30 1 F 7.8893 -0.7591 0.0 0
M  V30 2 C 6.5744 0.0 0.0 0
M  V30 3 F 6.9298 1.385 0.0 0
M  V30 4 C 5.2595 -0.7591 0.0 0 CFG=2
M  V30 5 N 5.2595 -2.2774 0.0 0
M  V30 6 C 5.2595 0.7591 0.0 0
M  V30 7 C 3.9446 0.0 0.0 0
M  V30 8 O 3.9446 1.5183 0.0 0
M  V30 9 O 6.3967 1.5849 0.0 0 CHG=-1
M  V30 10 C 2.6297 -0.7591 0.0 0
M  V30 11 C 1.3148 0.0 0.0 0
M  V30 12 N 0.0 -0.7591 0.0 0
M  V30 END ATOM
M  V30 BEGIN BOND
M  V30 1 1 1 2
M  V30 2 1 2 3
M  V30 3 1 4 2
M  V30 4 1 4 5
M  V30 5 1 4 6 CFG=3
M  V30 6 1 4 7
M  V30 7 2 6 8
M  V30 8 1 6 9
M  V30 9 1 7 10
M  V30 10 1 10 11
M  V30 11 1 11 12
M  V30 END BOND
M  V30 BEGIN COLLECTION
M  V30 MDLV30/STERAC1 ATOMS=(1 4)
M  V30 END COLLECTION
M  V30 END CTAB
M  END
>  <Molecule Name>


>  <status>
DISCONTINUED

>  <cas>
70052-12-9

>  <name>
EFLORNITHINE

>  <ID>
1402

>  <Smiles>
NCCCC(C(F)F)(C([O-])=O)N

$$$$

Actelion Java MolfileCreator 2.0

  0  0  0  0  0  0              0 V3000
M  V30 BEGIN CTAB
M  V30 COUNTS 37 41 0 0 0
M  V30 BEGIN ATOM
M  V30 1 S 5.2303 -0.7549 0.0 0
M  V30 2 C 3.9227 0.0 0.0 0
M  V30 3 C 5.2303 -2.2648 0.0 0
M  V30 4 O 2.8375 -0.8264 0.0 0
M  V30 5 C 3.9227 1.5098 0.0 0 CFG=2
M  V30 6 F 3.9227 -3.0197 0.0 0
M  V30 7 O 5.2681 0.8244 0.0 0
M  V30 8 C 3.6865 3.0011 0.0 0 CFG=2
M  V30 9 C 2.5774 0.8244 0.0 0 CFG=1
M  V30 10 C 6.5344 1.6467 0.0 0
M  V30 11 C 2.1952 3.2373 0.0 0 CFG=1
M  V30 12 C 4.6367 4.1745 0.0 0
M  V30 13 C 5.145 2.6103 0.0 0
M  V30 14 C 1.5098 1.892 0.0 0
M  V30 15 C 2.23 -0.6311 0.0 0
M  V30 16 O 6.4553 3.1545 0.0 0
M  V30 17 C 7.8797 0.9612 0.0 0
M  V30 18 C 1.6542 4.6469 0.0 0 CFG=1
M  V30 19 C 4.0956 5.5841 0.0 0 CFG=1
M  V30 20 O 8.1159 -0.53 0.0 0
M  V30 21 C 9.225 1.6467 0.0 0
M  V30 22 C 2.6044 5.8203 0.0 0 CFG=1
M  V30 23 C 0.1629 4.8831 0.0 0
M  V30 24 O 5.0459 6.7575 0.0 0
M  V30 25 C 9.6072 -0.7662 0.0 0
M  V30 26 C 10.2926 0.5791 0.0 0
M  V30 27 F 3.7433 6.9937 0.0 0
M  V30 28 C 2.0633 7.2299 0.0 0 CFG=2
M  V30 29 C -0.3781 6.2927 0.0 0 CFG=1
M  V30 30 C 0.572 7.4661 0.0 0
M  V30 31 C 3.0135 8.4033 0.0 0
M  V30 32 C 3.1771 6.9937 0.0 0
M  V30 33 F -1.8694 6.5289 0.0 0
M  V30 34 C 0.0309 8.8757 0.0 0
M  V30 35 C 2.4724 9.8129 0.0 0
M  V30 36 C 0.9811 10.0491 0.0 0
M  V30 37 O 0.44 11.4587 0.0 0
M  V30 END ATOM
M  V30 BEGIN BOND
M  V30 1 1 1 2
M  V30 2 1 1 3
M  V30 3 2 2 4
M  V30 4 1 5 2
M  V30 5 1 3 6
M  V30 6 1 5 7 CFG=3
M  V30 7 1 8 5
M  V30 8 1 9 5
M  V30 9 1 7 10
M  V30 10 1 11 8
M  V30 11 1 8 12
M  V30 12 1 8 13 CFG=1
M  V30 13 1 9 14
M  V30 14 1 9 15 CFG=3
M  V30 15 2 10 16
M  V30 16 1 10 17
M  V30 17 1 18 11
M  V30 18 1 19 12
M  V30 19 1 17 20
M  V30 20 2 17 21
M  V30 21 1 22 18
M  V30 22 1 18 23 CFG=3
M  V30 23 1 19 24 CFG=1
M  V30 24 1 20 25
M  V30 25 1 21 26
M  V30 26 1 22 27 CFG=3
M  V30 27 1 28 22
M  V30 28 1 29 23
M  V30 29 1 28 30
M  V30 30 1 28 31
M  V30 31 1 28 32 CFG=1
M  V30 32 1 29 33 CFG=3
M  V30 33 2 30 34
M  V30 34 2 31 35
M  V30 35 1 34 36
M  V30 36 2 36 37
M  V30 37 1 11 14 CFG=1
M  V30 38 1 19 22
M  V30 39 2 25 26
M  V30 40 1 29 30
M  V30 41 1 35 36
M  V30 END BOND
M  V30 BEGIN COLLECTION
M  V30 MDLV30/STERAC1 ATOMS=(9 5 8 9 11 18 19 22 28 29)
M  V30 END COLLECTION
M  V30 END CTAB
M  END
>  <Molecule Name>


>  <status>
-

>  <cas>
397864-44-7

>  <name>
FLUTICASONE FUROATE

>  <ID>
1403

>  <Smiles>
C[C@H](C[C@@H]([C@H](C[C@@H](C([C@]1(C)C=C2)=CC2=O)F)[C@@]11F)[C@]2(C)C[C@@H]1O)[C@@]2(C(SCF)=O)OC(c1ccco1)=O

$$$$

Actelion Java MolfileCreator 2.0

  0  0  0  0  0  0              0 V3000
M  V30 BEGIN CTAB
M  V30 COUNTS 50 49 0 0 0
M  V30 BEGIN ATOM
M  V30 1 P 22.0836 -4.5 0.0 0 CFG=2
M  V30 2 O 22.8336 -5.799 0.0 0
M  V30 3 O 22.0836 -3.0 0.0 0
M  V30 4 O 20.7846 -5.25 0.0 0
M  V30 5 O 23.5836 -4.4999 0.0 0 CHG=-1
M  V30 6 C 23.3827 -2.25 0.0 0
M  V30 7 C 20.7846 -6.75 0.0 0
M  V30 8 C 23.3827 -0.75 0.0 0 CFG=1
M  V30 9 C 19.4855 -7.5 0.0 0
M  V30 10 O 24.6817 0.0 0.0 0
M  V30 11 C 22.0836 0.0 0.0 0
M  V30 12 N 19.4855 -9.0 0.0 0 CHG=1
M  V30 13 C 25.9807 -0.75 0.0 0
M  V30 14 O 20.7846 -0.75 0.0 0
M  V30 15 C 20.9855 -9.0 0.0 0
M  V30 16 C 19.4855 -10.5 0.0 0
M  V30 17 C 17.9855 -9.0 0.0 0
M  V30 18 O 25.9807 -2.25 0.0 0
M  V30 19 C 27.2798 0.0 0.0 0
M  V30 20 C 19.4855 0.0 0.0 0
M  V30 21 C 28.5788 -0.75 0.0 0
M  V30 22 O 19.4855 1.5 0.0 0
M  V30 23 C 18.1865 -0.75 0.0 0
M  V30 24 C 29.8779 0.0 0.0 0
M  V30 25 C 16.8875 0.0 0.0 0
M  V30 26 C 31.1769 -0.75 0.0 0
M  V30 27 C 15.5884 -0.75 0.0 0
M  V30 28 C 32.4759 0.0 0.0 0
M  V30 29 C 14.2894 0.0 0.0 0
M  V30 30 C 33.775 -0.75 0.0 0
M  V30 31 C 12.9903 -0.75 0.0 0
M  V30 32 C 35.074 0.0 0.0 0
M  V30 33 C 11.6913 0.0 0.0 0
M  V30 34 C 36.373 -0.75 0.0 0
M  V30 35 C 10.3923 -0.75 0.0 0
M  V30 36 C 37.6721 0.0 0.0 0
M  V30 37 C 9.0932 0.0 0.0 0
M  V30 38 C 38.9711 -0.75 0.0 0
M  V30 39 C 7.7942 -0.75 0.0 0
M  V30 40 C 40.2702 0.0 0.0 0
M  V30 41 C 6.4951 0.0 0.0 0
M  V30 42 C 41.5692 -0.75 0.0 0
M  V30 43 C 5.1961 -0.75 0.0 0
M  V30 44 C 42.8682 0.0 0.0 0
M  V30 45 C 3.8971 0.0 0.0 0
M  V30 46 C 44.1673 -0.75 0.0 0
M  V30 47 C 2.598 -0.75 0.0 0
M  V30 48 C 45.4663 0.0 0.0 0
M  V30 49 C 1.299 0.0 0.0 0
M  V30 50 C 0.0 -0.75 0.0 0
M  V30 END ATOM
M  V30 BEGIN BOND
M  V30 1 2 1 2
M  V30 2 1 1 3
M  V30 3 1 1 4
M  V30 4 1 1 5 CFG=3
M  V30 5 1 3 6
M  V30 6 1 4 7
M  V30 7 1 8 6
M  V30 8 1 7 9
M  V30 9 1 8 10 CFG=3
M  V30 10 1 8 11
M  V30 11 1 9 12
M  V30 12 1 10 13
M  V30 13 1 11 14
M  V30 14 1 12 15
M  V30 15 1 12 16
M  V30 16 1 12 17
M  V30 17 2 13 18
M  V30 18 1 13 19
M  V30 19 1 14 20
M  V30 20 1 19 21
M  V30 21 2 20 22
M  V30 22 1 20 23
M  V30 23 1 21 24
M  V30 24 1 23 25
M  V30 25 1 24 26
M  V30 26 1 25 27
M  V30 27 1 26 28
M  V30 28 1 27 29
M  V30 29 1 28 30
M  V30 30 1 29 31
M  V30 31 1 30 32
M  V30 32 1 31 33
M  V30 33 1 32 34
M  V30 34 1 33 35
M  V30 35 1 34 36
M  V30 36 1 35 37
M  V30 37 1 36 38
M  V30 38 1 37 39
M  V30 39 1 38 40
M  V30 40 1 39 41
M  V30 41 1 40 42
M  V30 42 1 41 43
M  V30 43 1 42 44
M  V30 44 1 43 45
M  V30 45 1 44 46
M  V30 46 1 45 47
M  V30 47 1 46 48
M  V30 48 1 47 49
M  V30 49 1 49 50
M  V30 END BOND
M  V30 BEGIN COLLECTION
M  V30 MDLV30/STERAC1 ATOMS=(2 1 8)
M  V30 END COLLECTION
M  V30 END CTAB
M  END
>  <Molecule Name>


>  <status>
DISCONTINUED

>  <cas>
63-89-8

>  <name>
COLFOSCERIL PALMITATE

>  <ID>
1404

>  <Smiles>
CCCCCCCCCCCCCCCC(OC[C@@H](CO[P@]([O-])(OCC[N+](C)(C)C)=O)OC(CCCCCCCCCCCCCCC)=O)=O

$$$$

Actelion Java MolfileCreator 2.0

  0  0  0  0  0  0              0 V3000
M  V30 BEGIN CTAB
M  V30 COUNTS 21 21 0 0 0
M  V30 BEGIN ATOM
M  V30 1 O 9.0932 1.5 0.0 0
M  V30 2 C 9.0932 0.0 0.0 0
M  V30 3 O 7.7942 -0.75 0.0 0
M  V30 4 C 10.3923 -0.75 0.0 0
M  V30 5 C 6.4951 0.0 0.0 0
M  V30 6 C 11.6913 0.0 0.0 0
M  V30 7 C 5.1961 -0.75 0.0 0 CFG=2
M  V30 8 C 12.9903 -0.75 0.0 0
M  V30 9 C 3.8971 0.0 0.0 0
M  V30 10 C 5.1961 -2.25 0.0 0
M  V30 11 C 12.9903 -2.25 0.0 0
M  V30 12 C 14.2894 0.0 0.0 0
M  V30 13 C 2.598 -0.75 0.0 0
M  V30 14 C 6.4951 -3.0 0.0 0
M  V30 15 C 14.2894 -3.0 0.0 0
M  V30 16 C 15.5884 -0.75 0.0 0
M  V30 17 C 1.299 0.0 0.0 0
M  V30 18 C 15.5884 -2.25 0.0 0
M  V30 19 C 0.0 -0.75 0.0 0
M  V30 20 O 16.8874 -2.9999 0.0 0
M  V30 21 C 18.1865 -2.2499 0.0 0
M  V30 END ATOM
M  V30 BEGIN BOND
M  V30 1 2 1 2
M  V30 2 1 2 3
M  V30 3 1 2 4
M  V30 4 1 3 5
M  V30 5 2 4 6
M  V30 6 1 7 5 CFG=1
M  V30 7 1 6 8
M  V30 8 1 7 9
M  V30 9 1 7 10
M  V30 10 2 8 11
M  V30 11 1 8 12
M  V30 12 1 9 13
M  V30 13 1 10 14
M  V30 14 1 11 15
M  V30 15 2 12 16
M  V30 16 1 13 17
M  V30 17 2 15 18
M  V30 18 1 17 19
M  V30 19 1 18 20
M  V30 20 1 20 21
M  V30 21 1 16 18
M  V30 END BOND
M  V30 BEGIN COLLECTION
M  V30 MDLV30/STERAC1 ATOMS=(1 7)
M  V30 END COLLECTION
M  V30 END CTAB
M  END
>  <Molecule Name>


>  <status>
DISCONTINUED

>  <cas>
5466-77-3

>  <name>
OCTINOXATE

>  <ID>
1405

>  <Smiles>
CCCCC(CC)COC(/C=C/c(cc1)ccc1OC)=O

$$$$

Actelion Java MolfileCreator 2.0

  0  0  0  0  0  0              0 V3000
M  V30 BEGIN CTAB
M  V30 COUNTS 21 21 0 0 0
M  V30 BEGIN ATOM
M  V30 1 O 9.0932 1.5 0.0 0
M  V30 2 C 9.0932 0.0 0.0 0
M  V30 3 O 7.7942 -0.75 0.0 0
M  V30 4 C 10.3923 -0.75 0.0 0
M  V30 5 C 6.4951 0.0 0.0 0
M  V30 6 C 11.6913 0.0 0.0 0
M  V30 7 C 5.1961 -0.75 0.0 0 CFG=2
M  V30 8 C 12.9903 -0.75 0.0 0
M  V30 9 C 3.8971 0.0 0.0 0
M  V30 10 C 5.1961 -2.25 0.0 0
M  V30 11 C 12.9903 -2.25 0.0 0
M  V30 12 C 14.2894 0.0 0.0 0
M  V30 13 C 2.598 -0.75 0.0 0
M  V30 14 C 6.4951 -3.0 0.0 0
M  V30 15 C 14.2894 -3.0 0.0 0
M  V30 16 C 15.5884 -0.75 0.0 0
M  V30 17 C 1.299 0.0 0.0 0
M  V30 18 C 15.5884 -2.25 0.0 0
M  V30 19 C 0.0 -0.75 0.0 0
M  V30 20 O 16.8874 -2.9999 0.0 0
M  V30 21 C 18.1865 -2.2499 0.0 0
M  V30 END ATOM
M  V30 BEGIN BOND
M  V30 1 2 1 2
M  V30 2 1 2 3
M  V30 3 1 2 4
M  V30 4 1 3 5
M  V30 5 2 4 6
M  V30 6 1 7 5 CFG=1
M  V30 7 1 6 8
M  V30 8 1 7 9
M  V30 9 1 7 10
M  V30 10 2 8 11
M  V30 11 1 8 12
M  V30 12 1 9 13
M  V30 13 1 10 14
M  V30 14 1 11 15
M  V30 15 2 12 16
M  V30 16 1 13 17
M  V30 17 2 15 18
M  V30 18 1 17 19
M  V30 19 1 18 20
M  V30 20 1 20 21
M  V30 21 1 16 18
M  V30 END BOND
M  V30 BEGIN COLLECTION
M  V30 MDLV30/STERAC1 ATOMS=(1 7)
M  V30 END COLLECTION
M  V30 END CTAB
M  END
>  <Molecule Name>


>  <status>
DISCONTINUED

>  <cas>
5466-77-3

>  <name>
OCTINOXATE

>  <ID>
1406

>  <Smiles>
CCCCC(CC)COC(/C=C/c(cc1)ccc1OC)=O

$$$$
Molecule-1
Actelion Java MolfileCreator 2.0

  0  0  0  0  0  0              0 V3000
M  V30 BEGIN CTAB
M  V30 COUNTS 24 25 0 0 0
M  V30 BEGIN ATOM
M  V30 1 S 6.4952 0.0 0.0 0
M  V30 2 O 7.2452 1.299 0.0 0
M  V30 3 O 5.7452 1.299 0.0 0
M  V30 4 N 5.1961 -0.75 0.0 0
M  V30 5 C 7.7942 -0.75 0.0 0
M  V30 6 C 3.8971 0.0 0.0 0
M  V30 7 C 7.7942 -2.25 0.0 0
M  V30 8 C 9.0932 0.0 0.0 0
M  V30 9 O 3.8971 1.5 0.0 0
M  V30 10 N 2.598 -0.75 0.0 0
M  V30 11 N 6.4952 -3.0 0.0 0
M  V30 12 C 9.0932 -3.0 0.0 0
M  V30 13 N 10.3923 -0.75 0.0 0
M  V30 14 C 1.299 0.0 0.0 0
M  V30 15 C 6.4952 -4.5 0.0 0
M  V30 16 C 10.3923 -2.25 0.0 0
M  V30 17 C 1.299 1.5 0.0 0
M  V30 18 C 0.0 -0.75 0.0 0
M  V30 19 C 5.1961 -5.25 0.0 0
M  V30 20 C 7.7942 -5.25 0.0 0
M  V30 21 C 5.1961 -6.75 0.0 0
M  V30 22 C 7.7942 -6.75 0.0 0
M  V30 23 C 6.4952 -7.5 0.0 0
M  V30 24 C 3.8971 -7.5 0.0 0
M  V30 END ATOM
M  V30 BEGIN BOND
M  V30 1 2 1 2
M  V30 2 2 1 3
M  V30 3 1 1 4
M  V30 4 1 1 5
M  V30 5 1 4 6
M  V30 6 2 5 7
M  V30 7 1 5 8
M  V30 8 2 6 9
M  V30 9 1 6 10
M  V30 10 1 7 11
M  V30 11 1 7 12
M  V30 12 2 8 13
M  V30 13 1 10 14
M  V30 14 1 11 15
M  V30 15 2 12 16
M  V30 16 1 14 17
M  V30 17 1 14 18
M  V30 18 2 15 19
M  V30 19 1 15 20
M  V30 20 1 19 21
M  V30 21 2 20 22
M  V30 22 2 21 23
M  V30 23 1 21 24
M  V30 24 1 13 16
M  V30 25 1 22 23
M  V30 END BOND
M  V30 END CTAB
M  END
>  <Molecule Name>
Molecule-1

>  <status>
-

>  <cas>
56211-40-6

>  <name>
TORSEMIDE

>  <ID>
1407

>  <Smiles>
CC(C)NC(NS(c(cncc1)c1Nc1cc(C)ccc1)(=O)=O)=O

$$$$

Actelion Java MolfileCreator 2.0

  0  0  0  0  0  0              0 V3000
M  V30 BEGIN CTAB
M  V30 COUNTS 15 14 0 0 0
M  V30 BEGIN ATOM
M  V30 1 O 6.4952 1.5 0.0 0
M  V30 2 C 6.4952 0.0 0.0 0
M  V30 3 N 5.1961 -0.75 0.0 0
M  V30 4 C 7.7942 -0.75 0.0 0 CFG=1
M  V30 5 C 3.8971 0.0 0.0 0
M  V30 6 O 7.7942 -2.25 0.0 0
M  V30 7 C 9.0932 0.0 0.0 0
M  V30 8 C 2.598 -0.75 0.0 0
M  V30 9 C 10.3923 -0.75 0.0 0
M  V30 10 C 9.8432 1.299 0.0 0
M  V30 11 C 8.3432 1.299 0.0 0
M  V30 12 C 1.299 0.0 0.0 0
M  V30 13 O 11.6913 0.0 0.0 0
M  V30 14 O 1.299 1.5 0.0 0
M  V30 15 O 0.0 -0.75 0.0 0 CHG=-1
M  V30 END ATOM
M  V30 BEGIN BOND
M  V30 1 2 1 2
M  V30 2 1 2 3
M  V30 3 1 4 2
M  V30 4 1 3 5
M  V30 5 1 4 6 CFG=3
M  V30 6 1 4 7
M  V30 7 1 5 8
M  V30 8 1 7 9
M  V30 9 1 7 10
M  V30 10 1 7 11
M  V30 11 1 8 12
M  V30 12 1 9 13
M  V30 13 2 12 14
M  V30 14 1 12 15
M  V30 END BOND
M  V30 BEGIN COLLECTION
M  V30 MDLV30/STERAC1 ATOMS=(1 4)
M  V30 END COLLECTION
M  V30 END CTAB
M  END
>  <Molecule Name>


>  <status>
DISCONTINUED

>  <cas>
79-83-4

>  <name>
PANTOTHENIC ACID

>  <ID>
1408

>  <Smiles>
CC(C)(CO)C(C(NCCC([O-])=O)=O)O

$$$$
Molecule-1
Actelion Java MolfileCreator 2.0

  0  0  0  0  0  0              0 V3000
M  V30 BEGIN CTAB
M  V30 COUNTS 21 21 0 0 0
M  V30 BEGIN ATOM
M  V30 1 Cl 4.3301 0.9999 0.0 0
M  V30 2 C 4.3301 0.0 0.0 0
M  V30 3 C 3.4641 -0.5 0.0 0
M  V30 4 C 5.1961 -0.5 0.0 0
M  V30 5 N 2.598 0.0 0.0 0
M  V30 6 C 3.4641 -1.5 0.0 0
M  V30 7 N 6.0621 0.0 0.0 0
M  V30 8 C 5.1961 -1.5 0.0 0
M  V30 9 C 1.732 -0.5 0.0 0
M  V30 10 C 4.3301 -2.0 0.0 0
M  V30 11 C 6.0621 0.9999 0.0 0
M  V30 12 O 1.732 -1.5 0.0 0
M  V30 13 C 0.866 0.0 0.0 0
M  V30 14 C 4.3301 -3.0 0.0 0
M  V30 15 O 5.1961 1.4999 0.0 0
M  V30 16 C 6.9282 1.4999 0.0 0
M  V30 17 O 0.866 1.0 0.0 0
M  V30 18 O 0.0 -0.5 0.0 0 CHG=-1
M  V30 19 N 4.3301 -3.9999 0.0 0
M  V30 20 O 7.7942 0.9999 0.0 0
M  V30 21 O 6.9282 2.4999 0.0 0 CHG=-1
M  V30 END ATOM
M  V30 BEGIN BOND
M  V30 1 1 1 2
M  V30 2 2 2 3
M  V30 3 1 2 4
M  V30 4 1 3 5
M  V30 5 1 3 6
M  V30 6 1 4 7
M  V30 7 2 4 8
M  V30 8 1 5 9
M  V30 9 2 6 10
M  V30 10 1 7 11
M  V30 11 2 9 12
M  V30 12 1 9 13
M  V30 13 1 10 14
M  V30 14 2 11 15
M  V30 15 1 11 16
M  V30 16 2 13 17
M  V30 17 1 13 18
M  V30 18 3 14 19
M  V30 19 2 16 20
M  V30 20 1 16 21
M  V30 21 1 8 10
M  V30 END BOND
M  V30 END CTAB
M  END
>  <Molecule Name>
Molecule-1

>  <status>
-

>  <cas>
53882-12-5

>  <name>
LODOXAMIDE

>  <ID>
1409

>  <Smiles>
N#Cc(cc1NC(C([O-])=O)=O)cc(NC(C([O-])=O)=O)c1Cl

$$$$

Actelion Java MolfileCreator 2.0

  0  0  0  0  0  0              0 V3000
M  V30 BEGIN CTAB
M  V30 COUNTS 30 31 0 0 0
M  V30 BEGIN ATOM
M  V30 1 O 12.9903 -0.75 0.0 0
M  V30 2 C 14.2894 0.0 0.0 0
M  V30 3 C 11.6913 0.0 0.0 0
M  V30 4 C 15.5884 -0.75 0.0 0
M  V30 5 C 10.3923 -0.75 0.0 0
M  V30 6 C 16.8874 0.0 0.0 0
M  V30 7 C 9.0932 0.0 0.0 0
M  V30 8 C 18.1865 -0.75 0.0 0
M  V30 9 C 7.7942 -0.75 0.0 0
M  V30 10 C 19.4855 0.0 0.0 0
M  V30 11 C 6.4951 0.0 0.0 0
M  V30 12 C 20.7846 -0.75 0.0 0
M  V30 13 C 19.4855 1.4999 0.0 0
M  V30 14 C 5.1961 -0.75 0.0 0
M  V30 15 C 22.0836 0.0 0.0 0
M  V30 16 C 20.7846 2.2499 0.0 0
M  V30 17 N 3.8971 0.0 0.0 0
M  V30 18 C 22.0836 1.4999 0.0 0
M  V30 19 C 2.598 -0.75 0.0 0
M  V30 20 C 1.299 0.0 0.0 0 CFG=2
M  V30 21 O 1.299 1.5 0.0 0
M  V30 22 C 0.0 -0.75 0.0 0
M  V30 23 C -1.299 0.0 0.0 0
M  V30 24 C 0.0 -2.2499 0.0 0
M  V30 25 C -2.598 -0.7499 0.0 0
M  V30 26 C -1.299 -2.9999 0.0 0
M  V30 27 C -2.598 -2.2499 0.0 0
M  V30 28 C -3.8971 0.0 0.0 0
M  V30 29 O -3.8971 -2.9999 0.0 0
M  V30 30 O -5.1961 -0.7499 0.0 0
M  V30 END ATOM
M  V30 BEGIN BOND
M  V30 1 1 1 2
M  V30 2 1 1 3
M  V30 3 1 2 4
M  V30 4 1 3 5
M  V30 5 1 4 6
M  V30 6 1 5 7
M  V30 7 1 6 8
M  V30 8 1 7 9
M  V30 9 1 8 10
M  V30 10 1 9 11
M  V30 11 2 10 12
M  V30 12 1 10 13
M  V30 13 1 11 14
M  V30 14 1 12 15
M  V30 15 2 13 16
M  V30 16 1 14 17
M  V30 17 2 15 18
M  V30 18 1 17 19
M  V30 19 1 20 19
M  V30 20 1 20 21 CFG=1
M  V30 21 1 20 22
M  V30 22 2 22 23
M  V30 23 1 22 24
M  V30 24 1 23 25
M  V30 25 2 24 26
M  V30 26 2 25 27
M  V30 27 1 25 28
M  V30 28 1 27 29
M  V30 29 1 28 30
M  V30 30 1 16 18
M  V30 31 1 26 27
M  V30 END BOND
M  V30 BEGIN COLLECTION
M  V30 MDLV30/STERAC1 ATOMS=(1 20)
M  V30 END COLLECTION
M  V30 END CTAB
M  END
>  <Molecule Name>


>  <status>
-

>  <cas>
89365-50-4

>  <name>
SALMETEROL

>  <ID>
1410

>  <Smiles>
OCc(cc(C(CNCCCCCCOCCCCc1ccccc1)O)cc1)c1O

$$$$

Actelion Java MolfileCreator 2.0

  0  0  0  0  0  0              0 V3000
M  V30 BEGIN CTAB
M  V30 COUNTS 30 31 0 0 0
M  V30 BEGIN ATOM
M  V30 1 O 12.9903 -0.75 0.0 0
M  V30 2 C 14.2894 0.0 0.0 0
M  V30 3 C 11.6913 0.0 0.0 0
M  V30 4 C 15.5884 -0.75 0.0 0
M  V30 5 C 10.3923 -0.75 0.0 0
M  V30 6 C 16.8874 0.0 0.0 0
M  V30 7 C 9.0932 0.0 0.0 0
M  V30 8 C 18.1865 -0.75 0.0 0
M  V30 9 C 7.7942 -0.75 0.0 0
M  V30 10 C 19.4855 0.0 0.0 0
M  V30 11 C 6.4951 0.0 0.0 0
M  V30 12 C 20.7846 -0.75 0.0 0
M  V30 13 C 19.4855 1.4999 0.0 0
M  V30 14 C 5.1961 -0.75 0.0 0
M  V30 15 C 22.0836 0.0 0.0 0
M  V30 16 C 20.7846 2.2499 0.0 0
M  V30 17 N 3.8971 0.0 0.0 0
M  V30 18 C 22.0836 1.4999 0.0 0
M  V30 19 C 2.598 -0.75 0.0 0
M  V30 20 C 1.299 0.0 0.0 0 CFG=2
M  V30 21 O 1.299 1.5 0.0 0
M  V30 22 C 0.0 -0.75 0.0 0
M  V30 23 C -1.299 0.0 0.0 0
M  V30 24 C 0.0 -2.2499 0.0 0
M  V30 25 C -2.598 -0.7499 0.0 0
M  V30 26 C -1.299 -2.9999 0.0 0
M  V30 27 C -2.598 -2.2499 0.0 0
M  V30 28 C -3.8971 0.0 0.0 0
M  V30 29 O -3.8971 -2.9999 0.0 0
M  V30 30 O -5.1961 -0.7499 0.0 0
M  V30 END ATOM
M  V30 BEGIN BOND
M  V30 1 1 1 2
M  V30 2 1 1 3
M  V30 3 1 2 4
M  V30 4 1 3 5
M  V30 5 1 4 6
M  V30 6 1 5 7
M  V30 7 1 6 8
M  V30 8 1 7 9
M  V30 9 1 8 10
M  V30 10 1 9 11
M  V30 11 2 10 12
M  V30 12 1 10 13
M  V30 13 1 11 14
M  V30 14 1 12 15
M  V30 15 2 13 16
M  V30 16 1 14 17
M  V30 17 2 15 18
M  V30 18 1 17 19
M  V30 19 1 20 19
M  V30 20 1 20 21 CFG=1
M  V30 21 1 20 22
M  V30 22 2 22 23
M  V30 23 1 22 24
M  V30 24 1 23 25
M  V30 25 2 24 26
M  V30 26 2 25 27
M  V30 27 1 25 28
M  V30 28 1 27 29
M  V30 29 1 28 30
M  V30 30 1 16 18
M  V30 31 1 26 27
M  V30 END BOND
M  V30 BEGIN COLLECTION
M  V30 MDLV30/STERAC1 ATOMS=(1 20)
M  V30 END COLLECTION
M  V30 END CTAB
M  END
>  <Molecule Name>


>  <status>
-

>  <cas>
89365-50-4

>  <name>
SALMETEROL

>  <ID>
1411

>  <Smiles>
OCc(cc(C(CNCCCCCCOCCCCc1ccccc1)O)cc1)c1O

$$$$

Actelion Java MolfileCreator 2.0

  0  0  0  0  0  0              0 V3000
M  V30 BEGIN CTAB
M  V30 COUNTS 30 33 0 0 0
M  V30 BEGIN ATOM
M  V30 1 O 10.3035 2.2419 0.0 0
M  V30 2 C 9.6344 2.9851 0.0 0 CFG=1
M  V30 3 C 8.6562 2.7772 0.0 0
M  V30 4 C 9.9434 3.9361 0.0 0
M  V30 5 C 7.9871 3.5203 0.0 0
M  V30 6 C 8.3472 1.8261 0.0 0
M  V30 7 C 9.2742 4.6793 0.0 0 CFG=2
M  V30 8 C 7.0089 3.3124 0.0 0
M  V30 9 C 8.2961 4.4714 0.0 0
M  V30 10 O 9.5833 5.6303 0.0 0
M  V30 11 C 6.6999 2.3614 0.0 0
M  V30 12 C 5.7218 2.1534 0.0 0
M  V30 13 C 5.4128 1.2024 0.0 0 CFG=2
M  V30 14 C 5.0526 2.8966 0.0 0
M  V30 15 C 4.4346 0.9945 0.0 0 CFG=2
M  V30 16 C 5.9128 0.3364 0.0 0
M  V30 17 C 4.0745 2.6887 0.0 0
M  V30 18 C 4.3301 0.0 0.0 0 CFG=1
M  V30 19 C 3.7655 1.7376 0.0 0
M  V30 20 C 3.4835 0.6855 0.0 0
M  V30 21 C 5.2436 -0.4067 0.0 0
M  V30 22 C 3.4641 -0.5 0.0 0 CFG=2
M  V30 23 C 2.598 0.0 0.0 0
M  V30 24 C 3.4641 -1.5 0.0 0
M  V30 25 C 1.732 -0.5 0.0 0
M  V30 26 C 0.866 0.0 0.0 0 CFG=2
M  V30 27 O 0.866 1.0 0.0 0
M  V30 28 C 0.0 -0.5 0.0 0
M  V30 29 C -1.0 -0.4999 0.0 0
M  V30 30 C -0.5 -1.366 0.0 0
M  V30 END ATOM
M  V30 BEGIN BOND
M  V30 1 1 2 1 CFG=1
M  V30 2 1 2 3
M  V30 3 1 2 4
M  V30 4 1 3 5
M  V30 5 2 3 6
M  V30 6 1 7 4
M  V30 7 2 5 8
M  V30 8 1 5 9
M  V30 9 1 7 10 CFG=3
M  V30 10 1 8 11
M  V30 11 2 11 12
M  V30 12 1 13 12
M  V30 13 1 12 14
M  V30 14 1 15 13
M  V30 15 1 13 16 CFG=1
M  V30 16 1 14 17
M  V30 17 1 18 15
M  V30 18 1 15 19
M  V30 19 1 15 20 CFG=1
M  V30 20 1 16 21
M  V30 21 1 22 18
M  V30 22 1 22 23
M  V30 23 1 22 24 CFG=1
M  V30 24 2 23 25
M  V30 25 1 26 25
M  V30 26 1 26 27 CFG=1
M  V30 27 1 26 28
M  V30 28 1 28 29
M  V30 29 1 28 30
M  V30 30 1 7 9
M  V30 31 1 17 19
M  V30 32 1 18 21 CFG=1
M  V30 33 1 29 30
M  V30 END BOND
M  V30 BEGIN COLLECTION
M  V30 MDLV30/STERAC1 ATOMS=(7 2 7 13 15 18 22 26)
M  V30 END COLLECTION
M  V30 END CTAB
M  END
>  <Molecule Name>


>  <status>
-

>  <cas>
112965-21-6

>  <name>
CALCIPOTRIENE

>  <ID>
1412

>  <Smiles>
C[C@H]([C@H](CC1)[C@](C)(CCC2)[C@H]1/C2=C/C=C(/C[C@@H](C[C@H]1O)O)\C1=C)/C=C/[C@@H](C1CC1)O

$$$$
Molecule-1
Actelion Java MolfileCreator 2.0

  0  0  0  0  0  0              0 V3000
M  V30 BEGIN CTAB
M  V30 COUNTS 27 29 0 0 0
M  V30 BEGIN ATOM
M  V30 1 O 5.1961 1.5 0.0 0
M  V30 2 C 4.3301 1.0 0.0 0
M  V30 3 C 5.1961 2.5 0.0 0
M  V30 4 C 3.4641 1.5 0.0 0
M  V30 5 C 4.3301 0.0 0.0 0
M  V30 6 O 3.4641 2.5 0.0 0
M  V30 7 C 2.598 0.9999 0.0 0
M  V30 8 O 5.1961 -0.4999 0.0 0
M  V30 9 C 3.4641 -0.4999 0.0 0
M  V30 10 C 2.598 3.0 0.0 0
M  V30 11 C 2.598 0.0 0.0 0
M  V30 12 C 6.0621 0.0 0.0 0
M  V30 13 N 1.732 -0.5 0.0 0
M  V30 14 C 0.866 0.0 0.0 0
M  V30 15 C 0.0 -0.5 0.0 0
M  V30 16 C -0.866 0.0 0.0 0
M  V30 17 C 0.0 -1.4999 0.0 0
M  V30 18 C -1.732 -0.4999 0.0 0
M  V30 19 C -0.866 1.0 0.0 0
M  V30 20 C -0.866 -1.9999 0.0 0
M  V30 21 C -2.598 0.0 0.0 0
M  V30 22 C -1.732 -1.4999 0.0 0
M  V30 23 N -3.4641 -0.4999 0.0 0
M  V30 24 N -2.598 1.0 0.0 0
M  V30 25 N -2.598 -1.9999 0.0 0
M  V30 26 C -3.4641 -1.4999 0.0 0
M  V30 27 N -4.3301 -1.9999 0.0 0
M  V30 END ATOM
M  V30 BEGIN BOND
M  V30 1 1 1 2
M  V30 2 1 1 3
M  V30 3 2 2 4
M  V30 4 1 2 5
M  V30 5 1 4 6
M  V30 6 1 4 7
M  V30 7 1 5 8
M  V30 8 2 5 9
M  V30 9 1 6 10
M  V30 10 2 7 11
M  V30 11 1 8 12
M  V30 12 1 11 13
M  V30 13 1 13 14
M  V30 14 1 14 15
M  V30 15 2 15 16
M  V30 16 1 15 17
M  V30 17 1 16 18
M  V30 18 1 16 19
M  V30 19 2 17 20
M  V30 20 2 18 21
M  V30 21 1 18 22
M  V30 22 1 21 23
M  V30 23 1 21 24
M  V30 24 2 22 25
M  V30 25 2 23 26
M  V30 26 1 26 27
M  V30 27 1 9 11
M  V30 28 1 20 22
M  V30 29 1 25 26
M  V30 END BOND
M  V30 END CTAB
M  END
>  <Molecule Name>
Molecule-1

>  <status>
DISCONTINUED

>  <cas>
52128-35-5

>  <name>
TRIMETREXATE

>  <ID>
1413

>  <Smiles>
Cc1c(CNc(cc2OC)cc(OC)c2OC)ccc2nc(N)nc(N)c12

$$$$

Actelion Java MolfileCreator 2.0

  0  0  0  0  0  0              0 V3000
M  V30 BEGIN CTAB
M  V30 COUNTS 45 50 0 0 0
M  V30 BEGIN ATOM
M  V30 1 O 4.3301 0.9999 0.0 0
M  V30 2 C 4.3301 0.0 0.0 0
M  V30 3 O 5.1961 -0.5 0.0 0
M  V30 4 O 3.4641 -0.5 0.0 0
M  V30 5 C 6.0621 0.0 0.0 0
M  V30 6 C 2.598 0.0 0.0 0 CFG=2
M  V30 7 C 6.9282 -0.5 0.0 0
M  V30 8 C 6.0621 0.9999 0.0 0
M  V30 9 O 1.732 -0.5 0.0 0
M  V30 10 C 2.598 1.0 0.0 0
M  V30 11 C 7.7942 0.0 0.0 0
M  V30 12 C 6.9282 1.4999 0.0 0
M  V30 13 C 0.866 0.0 0.0 0
M  V30 14 C 7.7942 0.9999 0.0 0
M  V30 15 O 0.866 1.0 0.0 0
M  V30 16 C 0.0 -0.5 0.0 0
M  V30 17 C -0.866 0.0 0.0 0
M  V30 18 C 0.0 -1.4999 0.0 0
M  V30 19 N -1.0739 0.9781 0.0 0
M  V30 20 C -1.732 -0.4999 0.0 0
M  V30 21 C -0.866 -1.9999 0.0 0
M  V30 22 C -2.0684 1.0826 0.0 0
M  V30 23 C -0.4048 1.7212 0.0 0
M  V30 24 N -2.4751 0.1691 0.0 0
M  V30 25 C -1.732 -1.4999 0.0 0
M  V30 26 O -2.5684 1.9487 0.0 0
M  V30 27 C -0.7138 2.6723 0.0 0
M  V30 28 C -3.5684 1.9487 0.0 0
M  V30 29 C -0.0446 3.4154 0.0 0
M  V30 30 C -1.6919 2.8802 0.0 0
M  V30 31 C -4.0684 2.8147 0.0 0
M  V30 32 C -0.3537 4.3665 0.0 0
M  V30 33 C -2.0009 3.8313 0.0 0
M  V30 34 C -1.3318 4.5744 0.0 0
M  V30 35 C -1.6408 5.5255 0.0 0
M  V30 36 C -0.9717 6.2686 0.0 0
M  V30 37 C -2.619 5.7334 0.0 0
M  V30 38 C 0.0064 6.0607 0.0 0
M  V30 39 C -1.2807 7.2197 0.0 0
M  V30 40 C -2.928 6.6844 0.0 0
M  V30 41 N 0.4131 5.1472 0.0 0
M  V30 42 N 0.7495 6.7298 0.0 0
M  V30 43 C -2.2589 7.4276 0.0 0
M  V30 44 N 1.4076 5.2517 0.0 0
M  V30 45 N 1.6155 6.2298 0.0 0
M  V30 END ATOM
M  V30 BEGIN BOND
M  V30 1 2 1 2
M  V30 2 1 2 3
M  V30 3 1 2 4
M  V30 4 1 3 5
M  V30 5 1 6 4 CFG=3
M  V30 6 1 5 7
M  V30 7 1 5 8
M  V30 8 1 6 9
M  V30 9 1 6 10
M  V30 10 1 7 11
M  V30 11 1 8 12
M  V30 12 1 9 13
M  V30 13 1 11 14
M  V30 14 2 13 15
M  V30 15 1 13 16
M  V30 16 2 16 17
M  V30 17 1 16 18
M  V30 18 1 17 19
M  V30 19 1 17 20
M  V30 20 2 18 21
M  V30 21 1 19 22
M  V30 22 1 19 23
M  V30 23 1 20 24
M  V30 24 2 20 25
M  V30 25 1 22 26
M  V30 26 1 23 27
M  V30 27 1 26 28
M  V30 28 2 27 29
M  V30 29 1 27 30
M  V30 30 1 28 31
M  V30 31 1 29 32
M  V30 32 2 30 33
M  V30 33 2 32 34
M  V30 34 1 34 35
M  V30 35 2 35 36
M  V30 36 1 35 37
M  V30 37 1 36 38
M  V30 38 1 36 39
M  V30 39 2 37 40
M  V30 40 2 38 41
M  V30 41 1 38 42
M  V30 42 2 39 43
M  V30 43 1 41 44
M  V30 44 1 42 45
M  V30 45 1 12 14
M  V30 46 1 21 25
M  V30 47 2 22 24
M  V30 48 1 33 34
M  V30 49 1 40 43
M  V30 50 2 44 45
M  V30 END BOND
M  V30 BEGIN COLLECTION
M  V30 MDLV30/STERAC1 ATOMS=(1 6)
M  V30 END COLLECTION
M  V30 END CTAB
M  END
>  <Molecule Name>


>  <status>
-

>  <cas>
145040-37-5

>  <name>
CANDESARTAN CILEXETIL

>  <ID>
1414

>  <Smiles>
CCOc1nc2cccc(C(OC(C)OC(OC3CCCCC3)=O)=O)c2n1Cc(cc1)ccc1-c(cccc1)c1-c1nnn[nH]1

$$$$

Actelion Java MolfileCreator 2.0

  0  0  0  0  0  0              0 V3000
M  V30 BEGIN CTAB
M  V30 COUNTS 25 30 0 0 0
M  V30 BEGIN ATOM
M  V30 1 O 4.9552 -2.416 0.0 0
M  V30 2 C 5.3619 -1.5024 0.0 0
M  V30 3 C 3.9606 -2.3114 0.0 0 CFG=2
M  V30 4 C 6.2845 -1.0396 0.0 0
M  V30 5 C 4.6188 -0.8333 0.0 0
M  V30 6 C 3.0985 -2.879 0.0 0
M  V30 7 C 3.7527 -1.3333 0.0 0 CFG=1
M  V30 8 O 7.1069 -1.6086 0.0 0
M  V30 9 C 6.389 -0.0451 0.0 0
M  V30 10 C 4.6188 0.1666 0.0 0
M  V30 11 C 3.1801 -3.8757 0.0 0
M  V30 12 C 2.185 -2.4723 0.0 0
M  V30 13 C 2.8867 -0.8333 0.0 0 CFG=1
M  V30 14 C 2.6299 -1.9983 0.0 0
M  V30 15 C 5.58 0.5426 0.0 0
M  V30 16 C 3.7527 0.6666 0.0 0
M  V30 17 C 2.1317 -1.4149 0.0 0
M  V30 18 O 2.0943 -0.4385 0.0 0
M  V30 19 C 2.8867 0.1666 0.0 0 CFG=2
M  V30 20 C 1.6567 -1.5047 0.0 0
M  V30 21 N 1.6667 -0.511 0.0 0
M  V30 22 C 0.866 0.0 0.0 0
M  V30 23 C 0.0 -0.5 0.0 0
M  V30 24 C -1.0 -0.4999 0.0 0
M  V30 25 C -0.5 -1.366 0.0 0
M  V30 END ATOM
M  V30 BEGIN BOND
M  V30 1 1 1 2
M  V30 2 1 3 1 CFG=3
M  V30 3 2 2 4
M  V30 4 1 2 5
M  V30 5 1 3 6
M  V30 6 1 7 3
M  V30 7 1 4 8
M  V30 8 1 4 9
M  V30 9 2 5 10
M  V30 10 2 6 11
M  V30 11 1 6 12
M  V30 12 1 13 7
M  V30 13 1 7 14 CFG=1
M  V30 14 2 9 15
M  V30 15 1 10 16
M  V30 16 1 12 17
M  V30 17 1 13 18 CFG=1
M  V30 18 1 19 13
M  V30 19 1 14 20
M  V30 20 1 19 21 CFG=1
M  V30 21 1 21 22
M  V30 22 1 22 23
M  V30 23 1 23 24
M  V30 24 1 23 25
M  V30 25 1 5 7
M  V30 26 1 10 15
M  V30 27 1 13 17
M  V30 28 1 16 19
M  V30 29 1 20 21
M  V30 30 1 24 25
M  V30 END BOND
M  V30 BEGIN COLLECTION
M  V30 MDLV30/STERAC1 ATOMS=(4 3 7 13 19)
M  V30 END COLLECTION
M  V30 END CTAB
M  END
>  <Molecule Name>


>  <status>
-

>  <cas>
55096-26-9

>  <name>
NALMEFENE

>  <ID>
1415

>  <Smiles>
C=C(CC[C@]([C@H](C1)N(CC2CC2)CC2)([C@]22c3c1cc1)O)[C@H]2Oc3c1O

$$$$

Actelion Java MolfileCreator 2.0

  0  0  0  0  0  0              0 V3000
M  V30 BEGIN CTAB
M  V30 COUNTS 12 12 0 0 0
M  V30 BEGIN ATOM
M  V30 1 O 6.4951 0.0 0.0 0
M  V30 2 C 5.1961 -0.75 0.0 0
M  V30 3 O 5.1961 -2.25 0.0 0 CHG=-1
M  V30 4 C 3.8971 0.0 0.0 0
M  V30 5 C 2.598 -0.75 0.0 0
M  V30 6 C 1.299 0.0 0.0 0
M  V30 7 C 0.0 -0.75 0.0 0
M  V30 8 C -1.299 0.0 0.0 0
M  V30 9 C 0.0 -2.2499 0.0 0
M  V30 10 C -2.598 -0.7499 0.0 0
M  V30 11 C -1.299 -2.9999 0.0 0
M  V30 12 C -2.598 -2.2499 0.0 0
M  V30 END ATOM
M  V30 BEGIN BOND
M  V30 1 2 1 2
M  V30 2 1 2 3
M  V30 3 1 2 4
M  V30 4 1 4 5
M  V30 5 1 5 6
M  V30 6 1 6 7
M  V30 7 2 7 8
M  V30 8 1 7 9
M  V30 9 1 8 10
M  V30 10 2 9 11
M  V30 11 2 10 12
M  V30 12 1 11 12
M  V30 END BOND
M  V30 END CTAB
M  END
>  <Molecule Name>


>  <status>
-

>  <cas>
1716-12-7

>  <name>
PHENYLBUTYRATE

>  <ID>
1416

>  <Smiles>
[O-]C(CCCc1ccccc1)=O

$$$$

Actelion Java MolfileCreator 2.0

  0  0  0  0  0  0              0 V3000
M  V30 BEGIN CTAB
M  V30 COUNTS 30 32 0 0 0
M  V30 BEGIN ATOM
M  V30 1 O 10.1244 -4.5521 0.0 0
M  V30 2 C 10.4334 -3.601 0.0 0 CFG=1
M  V30 3 C 9.7643 -2.8579 0.0 0
M  V30 4 C 11.4116 -3.3931 0.0 0
M  V30 5 C 10.0733 -1.9068 0.0 0
M  V30 6 C 8.7862 -3.0658 0.0 0
M  V30 7 C 11.7206 -2.4421 0.0 0 CFG=2
M  V30 8 C 9.4042 -1.1637 0.0 0
M  V30 9 C 11.0515 -1.6989 0.0 0
M  V30 10 O 12.6988 -2.2341 0.0 0
M  V30 11 C 8.4261 -1.3716 0.0 0
M  V30 12 C 7.7569 -0.6284 0.0 0
M  V30 13 C 6.7788 -0.8364 0.0 0 CFG=2
M  V30 14 C 8.0659 0.3225 0.0 0
M  V30 15 C 6.1096 -0.0932 0.0 0 CFG=2
M  V30 16 C 6.2788 -1.7024 0.0 0
M  V30 17 C 7.3968 1.0657 0.0 0
M  V30 18 C 5.1961 -0.5 0.0 0 CFG=1
M  V30 19 C 6.4187 0.8577 0.0 0
M  V30 20 C 5.3665 0.5758 0.0 0
M  V30 21 C 5.3006 -1.4945 0.0 0
M  V30 22 C 4.3301 0.0 0.0 0 CFG=2
M  V30 23 C 3.4641 -0.5 0.0 0
M  V30 24 C 4.3301 1.0 0.0 0
M  V30 25 C 2.598 0.0 0.0 0
M  V30 26 C 1.732 -0.5 0.0 0 CFG=2
M  V30 27 C 0.866 0.0 0.0 0
M  V30 28 C 1.732 -1.5 0.0 0
M  V30 29 C 0.866 1.0 0.0 0
M  V30 30 C 0.0 -0.5 0.0 0
M  V30 END ATOM
M  V30 BEGIN BOND
M  V30 1 1 2 1 CFG=1
M  V30 2 1 2 3
M  V30 3 1 2 4
M  V30 4 1 3 5
M  V30 5 2 3 6
M  V30 6 1 7 4
M  V30 7 2 5 8
M  V30 8 1 5 9
M  V30 9 1 7 10 CFG=3
M  V30 10 1 8 11
M  V30 11 2 11 12
M  V30 12 1 13 12
M  V30 13 1 12 14
M  V30 14 1 15 13
M  V30 15 1 13 16 CFG=1
M  V30 16 1 14 17
M  V30 17 1 18 15
M  V30 18 1 15 19
M  V30 19 1 15 20 CFG=1
M  V30 20 1 16 21
M  V30 21 1 22 18
M  V30 22 1 22 23
M  V30 23 1 22 24 CFG=3
M  V30 24 2 23 25
M  V30 25 1 26 25
M  V30 26 1 26 27
M  V30 27 1 26 28 CFG=1
M  V30 28 1 27 29
M  V30 29 1 27 30
M  V30 30 1 7 9
M  V30 31 1 17 19
M  V30 32 1 18 21 CFG=1
M  V30 END BOND
M  V30 BEGIN COLLECTION
M  V30 MDLV30/STERAC1 ATOMS=(7 2 7 13 15 18 22 26)
M  V30 END COLLECTION
M  V30 END CTAB
M  END
>  <Molecule Name>


>  <status>
-

>  <cas>
54573-75-0

>  <name>
DOXERCALCIFEROL

>  <ID>
1417

>  <Smiles>
CC(C)[C@H](C)/C=C/[C@H](C)[C@H](CC1)[C@](C)(CCC2)[C@H]1/C2=C/C=C(/C[C@@H](C[C@H]1O)O)\C1=C

$$$$

Actelion Java MolfileCreator 2.0

  0  0  0  0  0  0              0 V3000
M  V30 BEGIN CTAB
M  V30 COUNTS 9 9 0 0 0
M  V30 BEGIN ATOM
M  V30 1 O 0.866 0.0 0.0 0
M  V30 2 C 1.732 -0.5 0.0 0
M  V30 3 C 0.0 -0.5 0.0 0
M  V30 4 C 1.732 -1.5 0.0 0
M  V30 5 C 2.598 0.0 0.0 0
M  V30 6 C 2.598 -2.0 0.0 0
M  V30 7 C 3.4641 -0.5 0.0 0
M  V30 8 C 3.4641 -1.5 0.0 0
M  V30 9 O 4.3301 -2.0 0.0 0
M  V30 END ATOM
M  V30 BEGIN BOND
M  V30 1 1 1 2
M  V30 2 1 1 3
M  V30 3 2 2 4
M  V30 4 1 2 5
M  V30 5 1 4 6
M  V30 6 2 5 7
M  V30 7 2 6 8
M  V30 8 1 8 9
M  V30 9 1 7 8
M  V30 END BOND
M  V30 END CTAB
M  END
>  <Molecule Name>


>  <status>
DISCONTINUED

>  <cas>
150-76-5

>  <name>
MEQUINOL

>  <ID>
1418

>  <Smiles>
COc(cc1)ccc1O

$$$$

Actelion Java MolfileCreator 2.0

  0  0  0  0  0  0              0 V3000
M  V30 BEGIN CTAB
M  V30 COUNTS 34 35 0 0 0
M  V30 BEGIN ATOM
M  V30 1 O -6.0621 -1.9999 0.0 0
M  V30 2 C -5.1961 -1.4999 0.0 0
M  V30 3 O -4.3301 -1.9999 0.0 0
M  V30 4 C -5.1961 -0.4999 0.0 0
M  V30 5 C -3.4641 -1.4999 0.0 0
M  V30 6 C -2.598 -1.9999 0.0 0
M  V30 7 C -3.4641 -0.4999 0.0 0
M  V30 8 C -1.732 -1.4999 0.0 0
M  V30 9 C -2.598 -2.9999 0.0 0
M  V30 10 C -2.598 0.0 0.0 0
M  V30 11 C -4.3301 0.0 0.0 0
M  V30 12 C -1.732 -0.4999 0.0 0
M  V30 13 C -0.866 -1.9999 0.0 0
M  V30 14 C -2.598 1.0 0.0 0
M  V30 15 O -0.866 0.0 0.0 0
M  V30 16 C 0.0 -1.5 0.0 0
M  V30 17 C 0.0 -0.5 0.0 0 CFG=2
M  V30 18 C 0.866 0.0 0.0 0
M  V30 19 C 0.866 -1.0 0.0 0
M  V30 20 C 1.732 -0.5 0.0 0
M  V30 21 C 2.598 0.0 0.0 0
M  V30 22 C 3.4641 -0.5 0.0 0 CFG=2
M  V30 23 C 4.3301 0.0 0.0 0
M  V30 24 C 3.4641 -1.5 0.0 0
M  V30 25 C 5.1961 -0.5 0.0 0
M  V30 26 C 6.0621 0.0 0.0 0
M  V30 27 C 6.9282 -0.5 0.0 0 CFG=2
M  V30 28 C 7.7942 0.0 0.0 0
M  V30 29 C 6.9282 -1.4999 0.0 0
M  V30 30 C 8.6602 -0.5 0.0 0
M  V30 31 C 9.5262 0.0 0.0 0
M  V30 32 C 10.3923 -0.5 0.0 0
M  V30 33 C 11.2583 0.0 0.0 0
M  V30 34 C 10.3923 -1.5 0.0 0
M  V30 END ATOM
M  V30 BEGIN BOND
M  V30 1 2 1 2
M  V30 2 1 2 3
M  V30 3 1 2 4
M  V30 4 1 3 5
M  V30 5 2 5 6
M  V30 6 1 5 7
M  V30 7 1 6 8
M  V30 8 1 6 9
M  V30 9 2 7 10
M  V30 10 1 7 11
M  V30 11 2 8 12
M  V30 12 1 8 13
M  V30 13 1 10 14
M  V30 14 1 12 15
M  V30 15 1 13 16
M  V30 16 1 17 15
M  V30 17 1 17 18
M  V30 18 1 17 19 CFG=3
M  V30 19 1 18 20
M  V30 20 1 20 21
M  V30 21 1 22 21
M  V30 22 1 22 23
M  V30 23 1 22 24 CFG=3
M  V30 24 1 23 25
M  V30 25 1 25 26
M  V30 26 1 27 26
M  V30 27 1 27 28
M  V30 28 1 27 29 CFG=3
M  V30 29 1 28 30
M  V30 30 1 30 31
M  V30 31 1 31 32
M  V30 32 1 32 33
M  V30 33 1 32 34
M  V30 34 1 10 12
M  V30 35 1 16 17
M  V30 END BOND
M  V30 BEGIN COLLECTION
M  V30 MDLV30/STERAC1 ATOMS=(3 17 22 27)
M  V30 END COLLECTION
M  V30 END CTAB
M  END
>  <Molecule Name>


>  <status>
-

>  <cas>
58-95-7

>  <name>
ALPHA-TOCOPHEROL ACETATE

>  <ID>
1419

>  <Smiles>
CC(C)CCC[C@H](C)CCC[C@H](C)CCC[C@@](C)(CC1)Oc(c(C)c2C)c1c(C)c2OC(C)=O

$$$$
_c001
Actelion Java MolfileCreator 2.0

  0  0  0  0  0  0              0 V3000
M  V30 BEGIN CTAB
M  V30 COUNTS 19 19 0 0 0
M  V30 BEGIN ATOM
M  V30 1 S 7.1448 1.2024 0.0 0
M  V30 2 C 6.1667 0.9945 0.0 0
M  V30 3 C 7.6448 0.3364 0.0 0
M  V30 4 C 6.0621 0.0 0.0 0
M  V30 5 C 5.4235 1.6636 0.0 0
M  V30 6 C 6.9757 -0.4067 0.0 0
M  V30 7 N 5.1961 -0.5 0.0 0
M  V30 8 O 4.4725 1.3546 0.0 0
M  V30 9 O 5.6314 2.6418 0.0 0
M  V30 10 C 7.1836 -1.3848 0.0 0
M  V30 11 C 5.1961 -1.4999 0.0 0
M  V30 12 C 4.8883 3.3109 0.0 0
M  V30 13 O 6.0621 -1.9999 0.0 0
M  V30 14 C 4.3301 -1.9999 0.0 0 CFG=1
M  V30 15 N 4.3301 -2.9999 0.0 0
M  V30 16 C 3.4641 -1.4999 0.0 0
M  V30 17 C 3.4641 -3.4999 0.0 0
M  V30 18 C 3.4641 -4.4999 0.0 0
M  V30 19 C 2.598 -4.9999 0.0 0
M  V30 END ATOM
M  V30 BEGIN BOND
M  V30 1 1 1 2
M  V30 2 1 1 3
M  V30 3 2 2 4
M  V30 4 1 2 5
M  V30 5 2 3 6
M  V30 6 1 4 7
M  V30 7 2 5 8
M  V30 8 1 5 9
M  V30 9 1 6 10
M  V30 10 1 7 11
M  V30 11 1 9 12
M  V30 12 2 11 13
M  V30 13 1 14 11
M  V30 14 1 14 15 CFG=1
M  V30 15 1 14 16
M  V30 16 1 15 17
M  V30 17 1 17 18
M  V30 18 1 18 19
M  V30 19 1 4 6
M  V30 END BOND
M  V30 BEGIN COLLECTION
M  V30 MDLV30/STERAC1 ATOMS=(1 14)
M  V30 END COLLECTION
M  V30 END CTAB
M  END
>  <Molecule Name>
_c001

>  <status>
-

>  <cas>
23964-58-1

>  <name>
ARTICAINE

>  <ID>
1420

>  <Smiles>
CCCNC(C)C(Nc1c(C(OC)=O)scc1C)=O

$$$$

Actelion Java MolfileCreator 2.0

  0  0  0  0  0  0              0 V3000
M  V30 BEGIN CTAB
M  V30 COUNTS 24 25 0 0 0
M  V30 BEGIN ATOM
M  V30 1 O 19.6131 -0.2864 0.0 0
M  V30 2 C 18.1865 -0.75 0.0 0
M  V30 3 C 20.4947 -1.5 0.0 0
M  V30 4 C 18.1865 -2.25 0.0 0
M  V30 5 C 16.8874 0.0 0.0 0
M  V30 6 O 19.6131 -2.7135 0.0 0
M  V30 7 C 16.8874 -3.0 0.0 0
M  V30 8 C 15.5884 -0.75 0.0 0
M  V30 9 C 15.5884 -2.25 0.0 0
M  V30 10 C 14.2894 0.0 0.0 0
M  V30 11 C 14.2894 -3.0 0.0 0
M  V30 12 O 12.9903 -0.75 0.0 0
M  V30 13 C 12.9903 -2.25 0.0 0
M  V30 14 C 11.6913 0.0 0.0 0
M  V30 15 C 11.6913 -2.9999 0.0 0
M  V30 16 C 10.3923 -0.75 0.0 0
M  V30 17 O 9.0932 0.0 0.0 0
M  V30 18 C 7.7942 -0.75 0.0 0
M  V30 19 C 6.4951 0.0 0.0 0
M  V30 20 O 5.1961 -0.75 0.0 0
M  V30 21 C 3.8971 0.0 0.0 0
M  V30 22 C 2.598 -0.75 0.0 0
M  V30 23 C 1.299 0.0 0.0 0
M  V30 24 C 0.0 -0.75 0.0 0
M  V30 END ATOM
M  V30 BEGIN BOND
M  V30 1 1 1 2
M  V30 2 1 1 3
M  V30 3 2 2 4
M  V30 4 1 2 5
M  V30 5 1 3 6
M  V30 6 1 4 7
M  V30 7 2 5 8
M  V30 8 2 7 9
M  V30 9 1 8 10
M  V30 10 1 9 11
M  V30 11 1 10 12
M  V30 12 1 11 13
M  V30 13 1 12 14
M  V30 14 1 13 15
M  V30 15 1 14 16
M  V30 16 1 16 17
M  V30 17 1 17 18
M  V30 18 1 18 19
M  V30 19 1 19 20
M  V30 20 1 20 21
M  V30 21 1 21 22
M  V30 22 1 22 23
M  V30 23 1 23 24
M  V30 24 1 4 6
M  V30 25 1 8 9
M  V30 END BOND
M  V30 END CTAB
M  END
>  <Molecule Name>


>  <status>
DISCONTINUED

>  <cas>
51-03-6

>  <name>
PIPERONYL BUTOXIDE

>  <ID>
1421

>  <Smiles>
CCCCOCCOCCOCc(c(CCC)c1)cc2c1OCO2

$$$$

Actelion Java MolfileCreator 2.0

  0  0  0  0  0  0              0 V3000
M  V30 BEGIN CTAB
M  V30 COUNTS 112 117 0 0 0
M  V30 BEGIN ATOM
M  V30 1 Cl 25.1147 2.9999 0.0 0
M  V30 2 C 24.2487 2.4999 0.0 0
M  V30 3 C 23.3826 2.9999 0.0 0
M  V30 4 C 24.2487 1.4999 0.0 0
M  V30 5 C 22.5166 2.4999 0.0 0
M  V30 6 C 23.3826 0.9999 0.0 0
M  V30 7 C 22.5166 1.4999 0.0 0
M  V30 8 C 21.6506 0.9999 0.0 0
M  V30 9 C 21.6506 0.0 0.0 0 CFG=1
M  V30 10 N 22.5166 -0.5 0.0 0
M  V30 11 C 20.7846 -0.5 0.0 0
M  V30 12 C 22.5166 -1.5 0.0 0
M  V30 13 O 20.7846 -1.5 0.0 0
M  V30 14 N 19.9185 0.0 0.0 0
M  V30 15 O 21.6506 -1.9999 0.0 0
M  V30 16 C 23.3826 -2.0 0.0 0 CFG=2
M  V30 17 C 19.9185 0.9999 0.0 0 CFG=1
M  V30 18 N 23.3826 -3.0 0.0 0
M  V30 19 C 24.2487 -1.5 0.0 0
M  V30 20 C 19.0525 1.4999 0.0 0
M  V30 21 C 20.7846 1.4999 0.0 0
M  V30 22 C 22.5166 -3.5 0.0 0
M  V30 23 C 25.1147 -2.0 0.0 0
M  V30 24 O 19.0525 2.4999 0.0 0
M  V30 25 N 18.1865 0.9999 0.0 0
M  V30 26 C 20.7846 2.4999 0.0 0
M  V30 27 O 22.5166 -4.5 0.0 0
M  V30 28 C 21.6506 -3.0 0.0 0
M  V30 29 C 25.1147 -3.0 0.0 0
M  V30 30 C 25.9807 -1.5 0.0 0
M  V30 31 C 17.3205 1.4999 0.0 0 CFG=2
M  V30 32 C 21.6506 2.9999 0.0 0
M  V30 33 C 19.9185 2.9999 0.0 0
M  V30 34 C 25.9807 -3.5 0.0 0
M  V30 35 C 26.8467 -2.0 0.0 0
M  V30 36 C 16.4544 0.9999 0.0 0
M  V30 37 C 17.3205 2.4999 0.0 0
M  V30 38 N 21.6506 3.9999 0.0 0
M  V30 39 C 19.9185 3.9999 0.0 0
M  V30 40 C 26.8467 -3.0 0.0 0
M  V30 41 C 25.9807 -4.5 0.0 0
M  V30 42 O 15.5884 1.5 0.0 0
M  V30 43 N 16.4544 0.0 0.0 0
M  V30 44 O 16.4544 3.0 0.0 0
M  V30 45 C 20.7846 4.4999 0.0 0
M  V30 46 C 27.7128 -3.5 0.0 0
M  V30 47 C 26.8467 -5.0 0.0 0
M  V30 48 C 15.5884 -0.5 0.0 0 CFG=2
M  V30 49 C 27.7128 -4.5 0.0 0
M  V30 50 C 14.7224 0.0 0.0 0
M  V30 51 C 15.5884 -1.4999 0.0 0
M  V30 52 O 14.7224 1.0 0.0 0
M  V30 53 N 13.8564 -0.5 0.0 0
M  V30 54 C 14.7224 -2.0 0.0 0
M  V30 55 C 12.9903 0.0 0.0 0 CFG=1
M  V30 56 C 14.7224 -3.0 0.0 0
M  V30 57 C 13.8564 -1.5 0.0 0
M  V30 58 C 12.1243 -0.5 0.0 0
M  V30 59 C 12.9903 0.9999 0.0 0
M  V30 60 C 13.8564 -3.5 0.0 0
M  V30 61 C 12.9903 -2.0 0.0 0
M  V30 62 O 12.1243 -1.5 0.0 0
M  V30 63 N 11.2583 0.0 0.0 0
M  V30 64 C 12.1243 1.5 0.0 0
M  V30 65 C 12.9903 -3.0 0.0 0
M  V30 66 C 10.3923 -0.5 0.0 0 CFG=2
M  V30 67 C 12.1243 2.5 0.0 0
M  V30 68 O 12.1243 -3.5 0.0 0
M  V30 69 C 9.5262 0.0 0.0 0
M  V30 70 C 10.3923 -1.5 0.0 0
M  V30 71 C 12.9903 3.0 0.0 0
M  V30 72 O 9.5262 1.0 0.0 0
M  V30 73 N 8.6602 -0.5 0.0 0
M  V30 74 C 9.5262 -1.9999 0.0 0
M  V30 75 N 12.9903 4.0 0.0 0
M  V30 76 C 7.7942 0.0 0.0 0 CFG=2
M  V30 77 C 8.6602 -1.4999 0.0 0
M  V30 78 C 9.5262 -3.0 0.0 0
M  V30 79 C 13.8564 4.5 0.0 0
M  V30 80 C 7.7942 1.0 0.0 0
M  V30 81 C 6.9282 -0.5 0.0 0
M  V30 82 N 14.7224 4.0 0.0 0
M  V30 83 N 13.8564 5.5 0.0 0
M  V30 84 O 8.6602 1.4999 0.0 0
M  V30 85 N 6.9282 1.5 0.0 0
M  V30 86 C 6.0621 0.0 0.0 0
M  V30 87 C 14.7224 3.0 0.0 0
M  V30 88 C 14.7224 6.0 0.0 0
M  V30 89 C 6.8236 2.4945 0.0 0 CFG=2
M  V30 90 C 6.0146 1.0932 0.0 0
M  V30 91 C 5.1961 -0.5 0.0 0
M  V30 92 C 15.5884 2.5 0.0 0
M  V30 93 C 15.5884 5.4999 0.0 0
M  V30 94 C 7.5668 3.1636 0.0 0
M  V30 95 C 5.8455 2.7024 0.0 0
M  V30 96 C 5.3455 1.8364 0.0 0
M  V30 97 C 4.3301 0.0 0.0 0
M  V30 98 O 7.3589 4.1418 0.0 0
M  V30 99 N 8.5178 2.8546 0.0 0
M  V30 100 N 3.4641 -0.5 0.0 0
M  V30 101 C 9.261 3.5237 0.0 0 CFG=1
M  V30 102 C 2.598 0.0 0.0 0
M  V30 103 C 10.212 3.2147 0.0 0
M  V30 104 C 9.0531 4.5019 0.0 0
M  V30 105 N 2.598 0.9999 0.0 0
M  V30 106 N 1.732 -0.5 0.0 0
M  V30 107 O 10.4199 2.2366 0.0 0
M  V30 108 N 10.9552 3.8838 0.0 0
M  V30 109 C 3.4641 1.4999 0.0 0
M  V30 110 C 0.866 0.0 0.0 0
M  V30 111 C 3.4641 2.4999 0.0 0
M  V30 112 C 0.0 -0.5 0.0 0
M  V30 END ATOM
M  V30 BEGIN BOND
M  V30 1 1 1 2
M  V30 2 2 2 3
M  V30 3 1 2 4
M  V30 4 1 3 5
M  V30 5 2 4 6
M  V30 6 2 5 7
M  V30 7 1 7 8
M  V30 8 1 9 8
M  V30 9 1 9 10 CFG=1
M  V30 10 1 9 11
M  V30 11 1 10 12
M  V30 12 2 11 13
M  V30 13 1 11 14
M  V30 14 2 12 15
M  V30 15 1 16 12
M  V30 16 1 17 14 CFG=1
M  V30 17 1 16 18 CFG=1
M  V30 18 1 16 19
M  V30 19 1 17 20
M  V30 20 1 17 21
M  V30 21 1 18 22
M  V30 22 1 19 23
M  V30 23 2 20 24
M  V30 24 1 20 25
M  V30 25 1 21 26
M  V30 26 2 22 27
M  V30 27 1 22 28
M  V30 28 2 23 29
M  V30 29 1 23 30
M  V30 30 1 31 25 CFG=3
M  V30 31 2 26 32
M  V30 32 1 26 33
M  V30 33 1 29 34
M  V30 34 2 30 35
M  V30 35 1 31 36
M  V30 36 1 31 37
M  V30 37 1 32 38
M  V30 38 2 33 39
M  V30 39 1 34 40
M  V30 40 2 34 41
M  V30 41 2 36 42
M  V30 42 1 36 43
M  V30 43 1 37 44
M  V30 44 2 38 45
M  V30 45 2 40 46
M  V30 46 1 41 47
M  V30 47 1 48 43 CFG=1
M  V30 48 1 46 49
M  V30 49 1 48 50
M  V30 50 1 48 51
M  V30 51 2 50 52
M  V30 52 1 50 53
M  V30 53 1 51 54
M  V30 54 1 55 53 CFG=1
M  V30 55 2 54 56
M  V30 56 1 54 57
M  V30 57 1 55 58
M  V30 58 1 55 59
M  V30 59 1 56 60
M  V30 60 2 57 61
M  V30 61 2 58 62
M  V30 62 1 58 63
M  V30 63 1 59 64
M  V30 64 2 60 65
M  V30 65 1 66 63 CFG=1
M  V30 66 1 64 67
M  V30 67 1 65 68
M  V30 68 1 66 69
M  V30 69 1 66 70
M  V30 70 1 67 71
M  V30 71 2 69 72
M  V30 72 1 69 73
M  V30 73 1 70 74
M  V30 74 1 71 75
M  V30 75 1 76 73 CFG=1
M  V30 76 1 74 77
M  V30 77 1 74 78
M  V30 78 2 75 79
M  V30 79 1 76 80
M  V30 80 1 76 81
M  V30 81 1 79 82
M  V30 82 1 79 83
M  V30 83 2 80 84
M  V30 84 1 80 85
M  V30 85 1 81 86
M  V30 86 1 82 87
M  V30 87 1 83 88
M  V30 88 1 89 85
M  V30 89 1 85 90
M  V30 90 1 86 91
M  V30 91 1 87 92
M  V30 92 1 88 93
M  V30 93 1 89 94 CFG=1
M  V30 94 1 89 95
M  V30 95 1 90 96
M  V30 96 1 91 97
M  V30 97 2 94 98
M  V30 98 1 94 99
M  V30 99 1 97 100
M  V30 100 1 101 99 CFG=3
M  V30 101 2 100 102
M  V30 102 1 101 103
M  V30 103 1 101 104
M  V30 104 1 102 105
M  V30 105 1 102 106
M  V30 106 2 103 107
M  V30 107 1 103 108
M  V30 108 1 105 109
M  V30 109 1 106 110
M  V30 110 1 109 111
M  V30 111 1 110 112
M  V30 112 1 6 7
M  V30 113 1 35 40
M  V30 114 1 39 45
M  V30 115 2 47 49
M  V30 116 1 61 65
M  V30 117 1 95 96
M  V30 END BOND
M  V30 BEGIN COLLECTION
M  V30 MDLV30/STERAC1 ATOMS=(10 9 16 17 31 48 55 66 76 89 101)
M  V30 END COLLECTION
M  V30 END CTAB
M  END
>  <Molecule Name>


>  <status>
-

>  <cas>
124904-93-4

>  <name>
GANIRELIX

>  <ID>
1422

>  <Smiles>
CCNC(NCC)=NCCCC[C@H](C(N[C@@H](CC(C)C)C(N[C@@H](CCCCN=C(NCC)NCC)C(N(CCC1)[C@@H]1C(N[C@H](C)C(N)=O)=O)=O)=O)=O)NC([C@H](Cc(cc1)ccc1O)NC([C@H](CO)NC([C@@H](Cc1cnccc1)NC([C@@H](Cc(cc1)ccc1Cl)NC([C@@H](Cc1cc2ccccc2cc1)NC(C)=O)=O)=O)=O)=O)=O

$$$$

Actelion Java MolfileCreator 2.0

  0  0  0  0  0  0              0 V3000
M  V30 BEGIN CTAB
M  V30 COUNTS 24 27 0 0 0
M  V30 BEGIN ATOM
M  V30 1 O 11.0483 4.4311 0.0 0
M  V30 2 N 10.8905 2.9296 0.0 0
M  V30 3 C 9.5112 2.3155 0.0 0
M  V30 4 C 9.3534 0.814 0.0 0
M  V30 5 C 8.2898 3.2029 0.0 0
M  V30 6 C 7.9742 0.1999 0.0 0
M  V30 7 C 6.9105 2.5888 0.0 0
M  V30 8 C 6.7527 1.0873 0.0 0 CFG=2
M  V30 9 C 7.8164 -1.3015 0.0 0
M  V30 10 C 5.3735 0.4732 0.0 0 CFG=2
M  V30 11 C 6.4371 -1.9156 0.0 0
M  V30 12 C 5.2157 -1.0282 0.0 0 CFG=1
M  V30 13 C 4.152 1.3607 0.0 0
M  V30 14 C 3.8364 -1.6423 0.0 0 CFG=1
M  V30 15 C 2.7728 0.7466 0.0 0
M  V30 16 C 2.615 -0.7548 0.0 0 CFG=2
M  V30 17 C 3.3699 -3.0782 0.0 0
M  V30 18 C 1.3935 -1.6423 0.0 0 CFG=2
M  V30 19 C 1.4029 0.0961 0.0 0
M  V30 20 C 1.8601 -3.0782 0.0 0
M  V30 21 O 0.9664 -0.3433 0.0 0
M  V30 22 C -0.0423 -1.1757 0.0 0
M  V30 23 C 1.3075 1.5097 0.0 0
M  V30 24 C -1.4781 -0.7092 0.0 0
M  V30 END ATOM
M  V30 BEGIN BOND
M  V30 1 1 1 2
M  V30 2 2 2 3
M  V30 3 1 3 4
M  V30 4 1 3 5
M  V30 5 2 4 6
M  V30 6 1 5 7
M  V30 7 1 8 6
M  V30 8 1 6 9
M  V30 9 1 10 8
M  V30 10 1 9 11
M  V30 11 1 12 10
M  V30 12 1 10 13 CFG=3
M  V30 13 1 14 12
M  V30 14 1 13 15
M  V30 15 1 16 14
M  V30 16 1 14 17 CFG=3
M  V30 17 1 18 16
M  V30 18 1 16 19 CFG=3
M  V30 19 1 17 20
M  V30 20 1 18 21 CFG=3
M  V30 21 1 18 22
M  V30 22 1 19 23
M  V30 23 3 22 24
M  V30 24 1 8 7 CFG=1
M  V30 25 1 12 11 CFG=1
M  V30 26 1 15 16
M  V30 27 1 18 20
M  V30 END BOND
M  V30 BEGIN COLLECTION
M  V30 MDLV30/STERAC1 ATOMS=(6 8 10 12 14 16 18)
M  V30 END COLLECTION
M  V30 END CTAB
M  END
>  <Molecule Name>


>  <status>
-

>  <cas>
53016-31-2

>  <name>
NORELGESTROMIN

>  <ID>
1423

>  <Smiles>
CC[C@](CC1)([C@@H](CC2)[C@H](CC3)[C@H]1[C@@H](CC1)C3=C/C1=N/O)[C@@]2(C#C)O

$$$$

Actelion Java MolfileCreator 2.0

  0  0  0  0  0  0              0 V3000
M  V30 BEGIN CTAB
M  V30 COUNTS 30 30 0 0 0
M  V30 BEGIN ATOM
M  V30 1 O 5.1961 2.5 0.0 0
M  V30 2 C 4.3301 3.0 0.0 0
M  V30 3 O 4.3301 4.0 0.0 0
M  V30 4 C 3.4641 2.5 0.0 0
M  V30 5 C 5.1961 4.5 0.0 0
M  V30 6 C 3.4641 1.5 0.0 0
M  V30 7 C 5.1961 5.5 0.0 0
M  V30 8 C 6.0621 4.0 0.0 0
M  V30 9 C 2.598 1.0 0.0 0
M  V30 10 C 2.598 0.0 0.0 0
M  V30 11 C 1.732 -0.5 0.0 0
M  V30 12 C 0.866 0.0 0.0 0
M  V30 13 C 0.0 -0.5 0.0 0 CFG=1
M  V30 14 C -0.9135 -0.0932 0.0 0 CFG=1
M  V30 15 C -0.1045 -1.4945 0.0 0 CFG=2
M  V30 16 O -1.1214 0.8848 0.0 0
M  V30 17 C -1.5826 -0.8364 0.0 0
M  V30 18 C -1.0826 -1.7024 0.0 0 CFG=1
M  V30 19 C 0.6386 -2.1636 0.0 0
M  V30 20 O -1.4894 -2.6159 0.0 0
M  V30 21 C 1.5896 -1.8546 0.0 0
M  V30 22 C 2.3328 -2.5237 0.0 0
M  V30 23 O 2.1249 -3.5019 0.0 0
M  V30 24 C 3.2838 -2.2147 0.0 0
M  V30 25 C 4.027 -2.8838 0.0 0
M  V30 26 C 4.978 -2.5748 0.0 0
M  V30 27 C 5.7212 -3.2439 0.0 0
M  V30 28 C 6.6722 -2.9349 0.0 0
M  V30 29 C 7.4154 -3.6041 0.0 0
M  V30 30 C 8.3664 -3.295 0.0 0
M  V30 END ATOM
M  V30 BEGIN BOND
M  V30 1 2 1 2
M  V30 2 1 2 3
M  V30 3 1 2 4
M  V30 4 1 3 5
M  V30 5 1 4 6
M  V30 6 1 5 7
M  V30 7 1 5 8
M  V30 8 1 6 9
M  V30 9 1 9 10
M  V30 10 2 10 11
M  V30 11 1 11 12
M  V30 12 1 13 12 CFG=3
M  V30 13 1 14 13
M  V30 14 1 15 13
M  V30 15 1 14 16 CFG=3
M  V30 16 1 14 17
M  V30 17 1 18 15
M  V30 18 1 15 19 CFG=1
M  V30 19 1 18 20 CFG=3
M  V30 20 1 19 21
M  V30 21 1 21 22
M  V30 22 2 22 23
M  V30 23 1 22 24
M  V30 24 1 24 25
M  V30 25 1 25 26
M  V30 26 1 26 27
M  V30 27 1 27 28
M  V30 28 1 28 29
M  V30 29 1 29 30
M  V30 30 1 17 18
M  V30 END BOND
M  V30 BEGIN COLLECTION
M  V30 MDLV30/STERAC1 ATOMS=(4 13 14 15 18)
M  V30 END COLLECTION
M  V30 END CTAB
M  END
>  <Molecule Name>


>  <status>
DISCONTINUED

>  <cas>
120373-24-2

>  <name>
UNOPROSTONE ISOPROPYL

>  <ID>
1424

>  <Smiles>
CCCCCCCC(CC[C@H]([C@@H](C/C=C\CCCC(OC(C)C)=O)[C@H](C1)O)[C@@H]1O)=O

$$$$

Actelion Java MolfileCreator 2.0

  0  0  0  0  0  0              0 V3000
M  V30 BEGIN CTAB
M  V30 COUNTS 41 44 0 0 0
M  V30 BEGIN ATOM
M  V30 1 S 5.1961 -2.4318 0.0 0
M  V30 2 C 5.4549 -1.4659 0.0 0 CFG=2
M  V30 3 C 5.9032 -3.1389 0.0 0
M  V30 4 N 6.4208 -1.2071 0.0 0
M  V30 5 C 5.1961 -0.5 0.0 0 CFG=2
M  V30 6 C 6.8691 -2.8801 0.0 0
M  V30 7 C 7.128 -1.9142 0.0 0
M  V30 8 C 6.162 -0.2411 0.0 0
M  V30 9 N 4.3301 0.0 0.0 0
M  V30 10 C 7.5762 -3.5872 0.0 0
M  V30 11 C 8.0939 -1.6553 0.0 0
M  V30 12 O 6.662 0.6248 0.0 0
M  V30 13 C 3.4641 -0.5 0.0 0
M  V30 14 C 7.3174 -4.5531 0.0 0
M  V30 15 O 8.801 -2.3625 0.0 0
M  V30 16 O 8.3527 -0.6894 0.0 0
M  V30 17 O 3.4641 -1.5 0.0 0
M  V30 18 C 2.598 0.0 0.0 0
M  V30 19 C 6.3515 -4.8119 0.0 0
M  V30 20 C 9.3186 -0.4306 0.0 0
M  V30 21 N 1.732 -0.5 0.0 0
M  V30 22 C 2.598 1.0 0.0 0
M  V30 23 S 5.5744 -4.1826 0.0 0
M  V30 24 C 5.9931 -5.7455 0.0 0
M  V30 25 O 9.5774 0.5352 0.0 0
M  V30 26 O 1.732 -1.5 0.0 0
M  V30 27 N 3.407 1.5877 0.0 0
M  V30 28 C 1.789 1.5877 0.0 0
M  V30 29 C 4.7357 -4.7273 0.0 0
M  V30 30 N 4.9945 -5.6932 0.0 0
M  V30 31 C 6.5378 -6.5842 0.0 0
M  V30 32 C 10.5434 0.794 0.0 0
M  V30 33 C 0.866 -2.0 0.0 0
M  V30 34 C 3.098 2.5388 0.0 0
M  V30 35 S 2.098 2.5388 0.0 0
M  V30 36 O 11.2505 0.0869 0.0 0
M  V30 37 C 10.8022 1.76 0.0 0
M  V30 38 N 3.6858 3.3478 0.0 0
M  V30 39 C 9.8363 2.0188 0.0 0
M  V30 40 C 11.061 2.7259 0.0 0
M  V30 41 C 11.7681 1.5012 0.0 0
M  V30 END ATOM
M  V30 BEGIN BOND
M  V30 1 1 2 1 CFG=1
M  V30 2 1 1 3
M  V30 3 1 2 4
M  V30 4 1 5 2
M  V30 5 1 3 6
M  V30 6 1 4 7
M  V30 7 1 4 8
M  V30 8 1 5 9 CFG=1
M  V30 9 1 6 10
M  V30 10 1 7 11
M  V30 11 2 8 12
M  V30 12 1 9 13
M  V30 13 2 10 14
M  V30 14 2 11 15
M  V30 15 1 11 16
M  V30 16 2 13 17
M  V30 17 1 13 18
M  V30 18 1 14 19
M  V30 19 1 16 20
M  V30 20 2 18 21
M  V30 21 1 18 22
M  V30 22 1 19 23
M  V30 23 2 19 24
M  V30 24 1 20 25
M  V30 25 1 21 26
M  V30 26 1 22 27
M  V30 27 2 22 28
M  V30 28 1 23 29
M  V30 29 1 24 30
M  V30 30 1 24 31
M  V30 31 1 25 32
M  V30 32 1 26 33
M  V30 33 2 27 34
M  V30 34 1 28 35
M  V30 35 2 32 36
M  V30 36 1 32 37
M  V30 37 1 34 38
M  V30 38 1 37 39
M  V30 39 1 37 40
M  V30 40 1 37 41
M  V30 41 1 5 8
M  V30 42 2 6 7
M  V30 43 2 29 30
M  V30 44 1 34 35
M  V30 END BOND
M  V30 BEGIN COLLECTION
M  V30 MDLV30/STERAC1 ATOMS=(2 2 5)
M  V30 END COLLECTION
M  V30 END CTAB
M  END
>  <Molecule Name>


>  <status>
DISCONTINUED

>  <cas>
117467-28-4

>  <name>
CEFDITOREN PIVOXIL

>  <ID>
1425

>  <Smiles>
CC(C)(C)C(OCOC(C(N([C@H]([C@H]1NC(/C(/c2csc(N)n2)=N\OC)=O)SC2)C1=O)=C2/C=C\c1c(C)ncs1)=O)=O

$$$$
Molecule-1
Actelion Java MolfileCreator 2.0

  0  0  0  0  0  0              0 V3000
M  V30 BEGIN CTAB
M  V30 COUNTS 16 16 0 0 0
M  V30 BEGIN ATOM
M  V30 1 P 2.598 0.0 0.0 0
M  V30 2 O 3.098 -0.866 0.0 0
M  V30 3 O 3.4641 0.5 0.0 0 CHG=-1
M  V30 4 O 2.098 0.866 0.0 0 CHG=-1
M  V30 5 C 1.732 -0.5 0.0 0
M  V30 6 P 1.732 -1.5 0.0 0
M  V30 7 O 2.598 -0.9999 0.0 0
M  V30 8 C 0.866 0.0 0.0 0
M  V30 9 O 0.732 -1.4999 0.0 0
M  V30 10 O 1.732 -2.5 0.0 0 CHG=-1
M  V30 11 O 2.732 -1.5 0.0 0 CHG=-1
M  V30 12 N 0.0 -0.5 0.0 0
M  V30 13 C -0.9135 -0.0932 0.0 0
M  V30 14 C -0.1045 -1.4945 0.0 0
M  V30 15 N -1.5826 -0.8364 0.0 0
M  V30 16 C -1.0826 -1.7024 0.0 0
M  V30 END ATOM
M  V30 BEGIN BOND
M  V30 1 2 1 2
M  V30 2 1 1 3
M  V30 3 1 1 4
M  V30 4 1 1 5
M  V30 5 1 5 6
M  V30 6 1 5 7
M  V30 7 1 5 8
M  V30 8 2 6 9
M  V30 9 1 6 10
M  V30 10 1 6 11
M  V30 11 1 8 12
M  V30 12 1 12 13
M  V30 13 1 12 14
M  V30 14 2 13 15
M  V30 15 2 14 16
M  V30 16 1 15 16
M  V30 END BOND
M  V30 END CTAB
M  END
>  <Molecule Name>
Molecule-1

>  <status>
-

>  <cas>
118072-93-8

>  <name>
ZOLEDRONIC ACID

>  <ID>
1426

>  <Smiles>
[O-]P(C(Cn1cncc1)(O)P([O-])([O-])=O)([O-])=O

$$$$

Actelion Java MolfileCreator 2.0

  0  0  0  0  0  0              0 V3000
M  V30 BEGIN CTAB
M  V30 COUNTS 17 18 0 0 0
M  V30 BEGIN ATOM
M  V30 1 O 1.732 -1.5 0.0 0
M  V30 2 C 1.732 -0.5 0.0 0
M  V30 3 O 2.598 0.0 0.0 0
M  V30 4 C 0.866 0.0 0.0 0 CFG=1
M  V30 5 C 3.4641 -0.5 0.0 0
M  V30 6 C 0.866 1.0 0.0 0
M  V30 7 C 0.0 -0.5 0.0 0 CFG=1
M  V30 8 C 1.732 1.4999 0.0 0
M  V30 9 C 0.0 1.4999 0.0 0
M  V30 10 N -0.866 0.0 0.0 0
M  V30 11 C 0.0 -1.4999 0.0 0
M  V30 12 C 1.732 2.5 0.0 0
M  V30 13 C 0.0 2.5 0.0 0
M  V30 14 C -1.732 -0.4999 0.0 0
M  V30 15 C -0.866 -1.9999 0.0 0
M  V30 16 C 0.866 3.0 0.0 0
M  V30 17 C -1.732 -1.4999 0.0 0
M  V30 END ATOM
M  V30 BEGIN BOND
M  V30 1 2 1 2
M  V30 2 1 2 3
M  V30 3 1 4 2 CFG=3
M  V30 4 1 3 5
M  V30 5 1 4 6
M  V30 6 1 7 4
M  V30 7 2 6 8
M  V30 8 1 6 9
M  V30 9 1 7 10 CFG=3
M  V30 10 1 7 11
M  V30 11 1 8 12
M  V30 12 2 9 13
M  V30 13 1 10 14
M  V30 14 1 11 15
M  V30 15 2 12 16
M  V30 16 1 14 17
M  V30 17 1 13 16
M  V30 18 1 15 17
M  V30 END BOND
M  V30 BEGIN COLLECTION
M  V30 MDLV30/STERAC1 ATOMS=(2 4 7)
M  V30 END COLLECTION
M  V30 END CTAB
M  END
>  <Molecule Name>


>  <status>
-

>  <cas>
1072298-18-0

>  <name>
DEXMETHYLPHENIDATE

>  <ID>
1427

>  <Smiles>
COC([C@H]([C@H]1NCCCC1)c1ccccc1)=O

$$$$

Actelion Java MolfileCreator 2.0

  0  0  0  0  0  0              0 V3000
M  V30 BEGIN CTAB
M  V30 COUNTS 35 36 0 0 0
M  V30 BEGIN ATOM
M  V30 1 P 9.0932 0.0 0.0 0
M  V30 2 O 9.0932 -1.5 0.0 0
M  V30 3 O 10.3923 -0.75 0.0 0
M  V30 4 O 7.7942 -0.75 0.0 0
M  V30 5 C 9.0932 1.5 0.0 0
M  V30 6 C 11.6913 0.0 0.0 0
M  V30 7 C 6.4951 0.0 0.0 0
M  V30 8 O 10.3923 2.25 0.0 0
M  V30 9 O 12.9903 -0.75 0.0 0
M  V30 10 O 5.1961 -0.75 0.0 0
M  V30 11 C 10.3923 3.7499 0.0 0 CFG=2
M  V30 12 C 14.2894 0.0 0.0 0
M  V30 13 C 3.8971 0.0 0.0 0
M  V30 14 C 11.6913 4.5 0.0 0
M  V30 15 C 9.0932 4.5 0.0 0
M  V30 16 O 14.2894 1.5 0.0 0
M  V30 17 O 15.5884 -0.75 0.0 0
M  V30 18 O 3.8971 1.5 0.0 0
M  V30 19 O 2.598 -0.75 0.0 0
M  V30 20 N 11.6913 5.9999 0.0 0
M  V30 21 C 16.8874 0.0 0.0 0
M  V30 22 C 1.299 0.0 0.0 0
M  V30 23 C 12.9048 6.8816 0.0 0
M  V30 24 C 10.4778 6.8816 0.0 0
M  V30 25 C 18.1865 -0.75 0.0 0
M  V30 26 C 16.8874 1.5 0.0 0
M  V30 27 C 1.299 1.5 0.0 0
M  V30 28 C 0.0 -0.75 0.0 0
M  V30 29 N 14.372 6.5698 0.0 0
M  V30 30 C 12.4413 8.3082 0.0 0
M  V30 31 N 10.9413 8.3082 0.0 0
M  V30 32 C 15.3757 7.6845 0.0 0
M  V30 33 C 13.445 9.4229 0.0 0
M  V30 34 N 14.9122 9.1111 0.0 0
M  V30 35 N 12.9815 10.8495 0.0 0
M  V30 END ATOM
M  V30 BEGIN BOND
M  V30 1 2 1 2
M  V30 2 1 1 3
M  V30 3 1 1 4
M  V30 4 1 1 5
M  V30 5 1 3 6
M  V30 6 1 4 7
M  V30 7 1 5 8
M  V30 8 1 6 9
M  V30 9 1 7 10
M  V30 10 1 11 8 CFG=1
M  V30 11 1 9 12
M  V30 12 1 10 13
M  V30 13 1 11 14
M  V30 14 1 11 15
M  V30 15 2 12 16
M  V30 16 1 12 17
M  V30 17 2 13 18
M  V30 18 1 13 19
M  V30 19 1 14 20
M  V30 20 1 17 21
M  V30 21 1 19 22
M  V30 22 1 20 23
M  V30 23 1 20 24
M  V30 24 1 21 25
M  V30 25 1 21 26
M  V30 26 1 22 27
M  V30 27 1 22 28
M  V30 28 2 23 29
M  V30 29 1 23 30
M  V30 30 2 24 31
M  V30 31 1 29 32
M  V30 32 2 30 33
M  V30 33 2 32 34
M  V30 34 1 33 35
M  V30 35 1 30 31
M  V30 36 1 33 34
M  V30 END BOND
M  V30 BEGIN COLLECTION
M  V30 MDLV30/STERAC1 ATOMS=(1 11)
M  V30 END COLLECTION
M  V30 END CTAB
M  END
>  <Molecule Name>


>  <status>
-

>  <cas>
201341-05-1

>  <name>
TENOFOVIR DISOPROXIL

>  <ID>
1428

>  <Smiles>
CC(C)OC(OCOP(COC(C)Cn1c2ncnc(N)c2nc1)(OCOC(OC(C)C)=O)=O)=O

$$$$

Actelion Java MolfileCreator 2.0

  0  0  0  0  0  0              0 V3000
M  V30 BEGIN CTAB
M  V30 COUNTS 22 24 0 0 0
M  V30 BEGIN ATOM
M  V30 1 S 6.1096 -0.0932 0.0 0
M  V30 2 C 5.1961 -0.5 0.0 0
M  V30 3 C 6.7788 -0.8364 0.0 0
M  V30 4 C 5.3006 -1.4945 0.0 0
M  V30 5 C 4.3301 0.0 0.0 0
M  V30 6 C 6.2788 -1.7024 0.0 0
M  V30 7 C 3.4641 -0.5 0.0 0
M  V30 8 N 2.598 0.0 0.0 0
M  V30 9 C 2.598 1.0 0.0 0 CFG=2
M  V30 10 C 1.732 -0.5 0.0 0
M  V30 11 C 3.4641 1.5 0.0 0
M  V30 12 C 1.732 1.4999 0.0 0
M  V30 13 C 0.866 0.0 0.0 0
M  V30 14 C 3.4641 2.5 0.0 0
M  V30 15 C 1.732 2.5 0.0 0
M  V30 16 C 0.0 -0.5 0.0 0
M  V30 17 C 2.598 3.0 0.0 0
M  V30 18 C 4.3301 2.9999 0.0 0
M  V30 19 C 2.598 4.0 0.0 0
M  V30 20 C 4.3301 3.9999 0.0 0
M  V30 21 O 1.732 4.5 0.0 0
M  V30 22 C 3.4641 4.5 0.0 0
M  V30 END ATOM
M  V30 BEGIN BOND
M  V30 1 1 1 2
M  V30 2 1 1 3
M  V30 3 2 2 4
M  V30 4 1 2 5
M  V30 5 2 3 6
M  V30 6 1 5 7
M  V30 7 1 7 8
M  V30 8 1 9 8 CFG=1
M  V30 9 1 8 10
M  V30 10 1 9 11
M  V30 11 1 9 12
M  V30 12 1 10 13
M  V30 13 1 11 14
M  V30 14 1 12 15
M  V30 15 1 13 16
M  V30 16 2 14 17
M  V30 17 1 14 18
M  V30 18 1 17 19
M  V30 19 2 18 20
M  V30 20 1 19 21
M  V30 21 2 19 22
M  V30 22 1 4 6
M  V30 23 1 15 17
M  V30 24 1 20 22
M  V30 END BOND
M  V30 BEGIN COLLECTION
M  V30 MDLV30/STERAC1 ATOMS=(1 9)
M  V30 END COLLECTION
M  V30 END CTAB
M  END
>  <Molecule Name>


>  <status>
-

>  <cas>
99755-59-6

>  <name>
ROTIGOTINE

>  <ID>
1429

>  <Smiles>
CCCN(CCc1cccs1)C(CC1)Cc2c1c(O)ccc2

$$$$
Molecule-1
Actelion Java MolfileCreator 2.0

  0  0  0  0  0  0              0 V3000
M  V30 BEGIN CTAB
M  V30 COUNTS 19 20 0 0 0
M  V30 BEGIN ATOM
M  V30 1 O 2.598 3.0 0.0 0
M  V30 2 C 3.4641 2.5 0.0 0
M  V30 3 C 3.4641 1.5 0.0 0
M  V30 4 C 4.3301 3.0 0.0 0
M  V30 5 C 2.598 1.0 0.0 0
M  V30 6 C 4.3301 1.0 0.0 0
M  V30 7 C 5.1961 2.4999 0.0 0
M  V30 8 C 4.3301 4.0 0.0 0
M  V30 9 N 1.732 1.5 0.0 0
M  V30 10 C 2.598 0.0 0.0 0
M  V30 11 C 4.3301 0.0 0.0 0
M  V30 12 C 6.0621 2.9999 0.0 0
M  V30 13 C 5.1961 4.4999 0.0 0
M  V30 14 C 3.4641 -0.4999 0.0 0
M  V30 15 C 1.732 -0.5 0.0 0
M  V30 16 C 6.0621 3.9999 0.0 0
M  V30 17 C 0.866 0.0 0.0 0
M  V30 18 O 0.866 1.0 0.0 0
M  V30 19 N 0.0 -0.5 0.0 0
M  V30 END ATOM
M  V30 BEGIN BOND
M  V30 1 2 1 2
M  V30 2 1 2 3
M  V30 3 1 2 4
M  V30 4 2 3 5
M  V30 5 1 3 6
M  V30 6 2 4 7
M  V30 7 1 4 8
M  V30 8 1 5 9
M  V30 9 1 5 10
M  V30 10 2 6 11
M  V30 11 1 7 12
M  V30 12 2 8 13
M  V30 13 2 10 14
M  V30 14 1 10 15
M  V30 15 2 12 16
M  V30 16 1 15 17
M  V30 17 2 17 18
M  V30 18 1 17 19
M  V30 19 1 11 14
M  V30 20 1 13 16
M  V30 END BOND
M  V30 END CTAB
M  END
>  <Molecule Name>
Molecule-1

>  <status>
-

>  <cas>
78281-72-8

>  <name>
NEPAFENAC

>  <ID>
1430

>  <Smiles>
NC(Cc1cccc(C(c2ccccc2)=O)c1N)=O

$$$$

Actelion Java MolfileCreator 2.0

  0  0  0  0  0  0              0 V3000
M  V30 BEGIN CTAB
M  V30 COUNTS 26 31 0 0 0
M  V30 BEGIN ATOM
M  V30 1 O -3.6083 -0.0539 0.0 0
M  V30 2 C -2.6973 -0.4663 0.0 0
M  V30 3 C -2.599 -1.4614 0.0 0 CFG=1
M  V30 4 C -1.8846 0.1163 0.0 0
M  V30 5 O -3.2727 -2.2004 0.0 0
M  V30 6 C -1.688 -1.8739 0.0 0 CFG=1
M  V30 7 C -0.9596 -0.404 0.0 0
M  V30 8 C -2.7781 -3.0695 0.0 0
M  V30 9 C -1.7987 -2.8677 0.0 0
M  V30 10 C -0.8753 -1.2912 0.0 0 CFG=1
M  V30 11 C -1.7385 -0.524 0.0 0
M  V30 12 C -2.8438 -4.1266 0.0 0
M  V30 13 C -0.885 -3.3478 0.0 0
M  V30 14 O -0.1016 -0.8552 0.0 0
M  V30 15 C -0.0096 -1.8533 0.0 0 CFG=2
M  V30 16 C -0.8511 0.04 0.0 0
M  V30 17 O -3.7564 -4.5355 0.0 0
M  V30 18 C -2.0577 -4.7447 0.0 0
M  V30 19 C -1.1294 -4.373 0.0 0
M  V30 20 C -0.0159 -2.8532 0.0 0
M  V30 21 N 0.0179 -0.4372 0.0 0 CHG=1 CFG=2
M  V30 22 C 0.866 0.0 0.0 0
M  V30 23 C 0.8642 -1.003 0.0 0
M  V30 24 C 1.732 -0.5 0.0 0
M  V30 25 C 2.232 -1.366 0.0 0
M  V30 26 C 2.732 -0.5 0.0 0
M  V30 END ATOM
M  V30 BEGIN BOND
M  V30 1 2 1 2
M  V30 2 1 3 2
M  V30 3 1 2 4
M  V30 4 1 3 5 CFG=3
M  V30 5 1 6 3
M  V30 6 1 4 7
M  V30 7 1 5 8
M  V30 8 1 6 9
M  V30 9 1 10 6
M  V30 10 1 6 11 CFG=1
M  V30 11 1 8 12
M  V30 12 1 9 13
M  V30 13 1 10 14 CFG=1
M  V30 14 1 15 10
M  V30 15 1 11 16
M  V30 16 1 12 17
M  V30 17 2 12 18
M  V30 18 2 13 19
M  V30 19 1 13 20
M  V30 20 1 15 21 CFG=1
M  V30 21 1 21 22
M  V30 22 1 21 23 CFG=1
M  V30 23 1 22 24
M  V30 24 1 24 25
M  V30 25 1 24 26
M  V30 26 1 7 10
M  V30 27 2 8 9
M  V30 28 1 15 20
M  V30 29 1 16 21
M  V30 30 1 18 19
M  V30 31 1 25 26
M  V30 END BOND
M  V30 BEGIN COLLECTION
M  V30 MDLV30/STERAC1 ATOMS=(5 3 6 10 15 21)
M  V30 END COLLECTION
M  V30 END CTAB
M  END
>  <Molecule Name>


>  <status>
-

>  <cas>
73232-52-7

>  <name>
METHYLNALTREXONE

>  <ID>
1431

>  <Smiles>
C[N@+](CC1CC1)(CC[C@@]12c(c(C3)ccc4O)c4O[C@@H]2C(CC2)=O)[C@@H]3[C@]12O

$$$$

Actelion Java MolfileCreator 2.0

  0  0  0  0  0  0              0 V3000
M  V30 BEGIN CTAB
M  V30 COUNTS 19 20 0 0 0
M  V30 BEGIN ATOM
M  V30 1 O 6.0621 -1.9999 0.0 0
M  V30 2 C 5.1961 -1.4999 0.0 0
M  V30 3 C 5.1961 -0.5 0.0 0
M  V30 4 C 4.3301 -1.9999 0.0 0
M  V30 5 C 4.3301 0.0 0.0 0
M  V30 6 C 3.4641 -1.5 0.0 0
M  V30 7 C 3.4641 -0.5 0.0 0
M  V30 8 C 2.598 0.0 0.0 0 CFG=2
M  V30 9 C 2.598 1.0 0.0 0
M  V30 10 C 1.732 -0.5 0.0 0
M  V30 11 O 1.732 0.4999 0.0 0
M  V30 12 C 3.4641 1.5 0.0 0
M  V30 13 C 1.732 1.4999 0.0 0
M  V30 14 N 0.866 0.0 0.0 0
M  V30 15 C 3.4641 2.5 0.0 0
M  V30 16 C 1.732 2.5 0.0 0
M  V30 17 C 0.866 1.0 0.0 0
M  V30 18 C 0.0 -0.5 0.0 0
M  V30 19 C 2.598 3.0 0.0 0
M  V30 END ATOM
M  V30 BEGIN BOND
M  V30 1 1 1 2
M  V30 2 2 2 3
M  V30 3 1 2 4
M  V30 4 1 3 5
M  V30 5 2 4 6
M  V30 6 2 5 7
M  V30 7 1 8 7
M  V30 8 1 8 9
M  V30 9 1 8 10 CFG=1
M  V30 10 1 9 11
M  V30 11 1 9 12
M  V30 12 1 9 13
M  V30 13 1 10 14
M  V30 14 1 12 15
M  V30 15 1 13 16
M  V30 16 1 14 17
M  V30 17 1 14 18
M  V30 18 1 15 19
M  V30 19 1 6 7
M  V30 20 1 16 19
M  V30 END BOND
M  V30 BEGIN COLLECTION
M  V30 MDLV30/STERAC1 ATOMS=(1 8)
M  V30 END COLLECTION
M  V30 END CTAB
M  END
>  <Molecule Name>


>  <status>
-

>  <cas>
93413-62-8

>  <name>
DESVENLAFAXINE

>  <ID>
1432

>  <Smiles>
CN(C)CC(C1(CCCCC1)O)c(cc1)ccc1O

$$$$

Actelion Java MolfileCreator 2.0

  0  0  0  0  0  0              0 V3000
M  V30 BEGIN CTAB
M  V30 COUNTS 19 20 0 0 0
M  V30 BEGIN ATOM
M  V30 1 O 6.0621 -1.9999 0.0 0
M  V30 2 C 5.1961 -1.4999 0.0 0
M  V30 3 C 5.1961 -0.5 0.0 0
M  V30 4 C 4.3301 -1.9999 0.0 0
M  V30 5 C 4.3301 0.0 0.0 0
M  V30 6 C 3.4641 -1.5 0.0 0
M  V30 7 C 3.4641 -0.5 0.0 0
M  V30 8 C 2.598 0.0 0.0 0 CFG=2
M  V30 9 C 2.598 1.0 0.0 0
M  V30 10 C 1.732 -0.5 0.0 0
M  V30 11 O 1.732 0.4999 0.0 0
M  V30 12 C 3.4641 1.5 0.0 0
M  V30 13 C 1.732 1.4999 0.0 0
M  V30 14 N 0.866 0.0 0.0 0
M  V30 15 C 3.4641 2.5 0.0 0
M  V30 16 C 1.732 2.5 0.0 0
M  V30 17 C 0.866 1.0 0.0 0
M  V30 18 C 0.0 -0.5 0.0 0
M  V30 19 C 2.598 3.0 0.0 0
M  V30 END ATOM
M  V30 BEGIN BOND
M  V30 1 1 1 2
M  V30 2 2 2 3
M  V30 3 1 2 4
M  V30 4 1 3 5
M  V30 5 2 4 6
M  V30 6 2 5 7
M  V30 7 1 8 7
M  V30 8 1 8 9
M  V30 9 1 8 10 CFG=1
M  V30 10 1 9 11
M  V30 11 1 9 12
M  V30 12 1 9 13
M  V30 13 1 10 14
M  V30 14 1 12 15
M  V30 15 1 13 16
M  V30 16 1 14 17
M  V30 17 1 14 18
M  V30 18 1 15 19
M  V30 19 1 6 7
M  V30 20 1 16 19
M  V30 END BOND
M  V30 BEGIN COLLECTION
M  V30 MDLV30/STERAC1 ATOMS=(1 8)
M  V30 END COLLECTION
M  V30 END CTAB
M  END
>  <Molecule Name>


>  <status>
-

>  <cas>
93413-62-8

>  <name>
DESVENLAFAXINE

>  <ID>
1433

>  <Smiles>
CN(C)CC(C1(CCCCC1)O)c(cc1)ccc1O

$$$$

Actelion Java MolfileCreator 2.0

  0  0  0  0  0  0              0 V3000
M  V30 BEGIN CTAB
M  V30 COUNTS 41 44 0 0 0
M  V30 BEGIN ATOM
M  V30 1 P 5.8195 5.1159 0.0 0
M  V30 2 O 6.733 4.7092 0.0 0
M  V30 3 O 6.2262 6.0295 0.0 0 CHG=-1
M  V30 4 O 4.9059 5.5227 0.0 0 CHG=-1
M  V30 5 N 5.4128 4.2024 0.0 0
M  V30 6 N 4.4346 3.9945 0.0 0
M  V30 7 C 5.9128 3.3364 0.0 0
M  V30 8 C 4.3301 3.0 0.0 0
M  V30 9 O 6.9073 3.2318 0.0 0
M  V30 10 N 5.2436 2.5932 0.0 0
M  V30 11 C 3.4641 2.5 0.0 0
M  V30 12 N 3.4641 1.5 0.0 0
M  V30 13 C 2.598 1.0 0.0 0 CFG=1
M  V30 14 C 4.3301 1.0 0.0 0
M  V30 15 C 1.732 1.5 0.0 0
M  V30 16 C 2.598 0.0 0.0 0 CFG=2
M  V30 17 C 4.3301 0.0 0.0 0
M  V30 18 C 1.732 2.5 0.0 0
M  V30 19 C 0.866 1.0 0.0 0
M  V30 20 O 3.4641 -0.4999 0.0 0
M  V30 21 O 1.732 -0.5 0.0 0
M  V30 22 C 0.866 3.0 0.0 0
M  V30 23 C 0.0 1.5 0.0 0
M  V30 24 C 1.732 -1.5 0.0 0 CFG=1
M  V30 25 C 0.0 2.4999 0.0 0
M  V30 26 C 0.866 -2.0 0.0 0
M  V30 27 C 2.598 -2.0 0.0 0
M  V30 28 F -0.866 2.9999 0.0 0
M  V30 29 C 0.0 -1.5 0.0 0
M  V30 30 C 0.866 -3.0 0.0 0
M  V30 31 C -0.866 -2.0 0.0 0
M  V30 32 C 0.0 -3.5 0.0 0
M  V30 33 C -0.866 -3.0 0.0 0
M  V30 34 C -1.732 -1.4999 0.0 0
M  V30 35 C 0.0 -4.5 0.0 0
M  V30 36 F -2.232 -2.366 0.0 0
M  V30 37 F -2.598 -1.0 0.0 0
M  V30 38 F -1.232 -0.6339 0.0 0
M  V30 39 F 1.0 -4.5 0.0 0
M  V30 40 F 0.0 -5.5 0.0 0
M  V30 41 F -0.9999 -4.5 0.0 0
M  V30 END ATOM
M  V30 BEGIN BOND
M  V30 1 2 1 2
M  V30 2 1 1 3
M  V30 3 1 1 4
M  V30 4 1 1 5
M  V30 5 1 5 6
M  V30 6 1 5 7
M  V30 7 2 6 8
M  V30 8 2 7 9
M  V30 9 1 7 10
M  V30 10 1 8 11
M  V30 11 1 11 12
M  V30 12 1 13 12
M  V30 13 1 12 14
M  V30 14 1 13 15 CFG=3
M  V30 15 1 16 13
M  V30 16 1 14 17
M  V30 17 2 15 18
M  V30 18 1 15 19
M  V30 19 1 16 20
M  V30 20 1 16 21 CFG=3
M  V30 21 1 18 22
M  V30 22 2 19 23
M  V30 23 1 24 21 CFG=3
M  V30 24 2 22 25
M  V30 25 1 24 26
M  V30 26 1 24 27
M  V30 27 1 25 28
M  V30 28 2 26 29
M  V30 29 1 26 30
M  V30 30 1 29 31
M  V30 31 2 30 32
M  V30 32 2 31 33
M  V30 33 1 31 34
M  V30 34 1 32 35
M  V30 35 1 34 36
M  V30 36 1 34 37
M  V30 37 1 34 38
M  V30 38 1 35 39
M  V30 39 1 35 40
M  V30 40 1 35 41
M  V30 41 1 8 10
M  V30 42 1 17 20
M  V30 43 1 23 25
M  V30 44 1 32 33
M  V30 END BOND
M  V30 BEGIN COLLECTION
M  V30 MDLV30/STERAC1 ATOMS=(3 13 16 24)
M  V30 END COLLECTION
M  V30 END CTAB
M  END
>  <Molecule Name>


>  <status>
-

>  <cas>
172673-20-0

>  <name>
FOSAPREPITANT

>  <ID>
1434

>  <Smiles>
C[C@H](c1cc(C(F)(F)F)cc(C(F)(F)F)c1)O[C@H]1OCCN(CC(NC2=O)=NN2P([O-])([O-])=O)[C@H]1c(cc1)ccc1F

$$$$

Actelion Java MolfileCreator 2.0

  0  0  0  0  0  0              0 V3000
M  V30 BEGIN CTAB
M  V30 COUNTS 11 11 0 0 0
M  V30 BEGIN ATOM
M  V30 1 O 2.598 0.0 0.0 0
M  V30 2 C 1.732 -0.5 0.0 0
M  V30 3 O 0.866 0.0 0.0 0
M  V30 4 C 1.732 -1.5 0.0 0
M  V30 5 C 0.0 -0.5 0.0 0
M  V30 6 C 0.866 -1.9999 0.0 0
M  V30 7 C 2.598 -2.0 0.0 0
M  V30 8 O 0.0 -1.4999 0.0 0
M  V30 9 C 0.866 -2.9999 0.0 0
M  V30 10 C 2.598 -3.0 0.0 0
M  V30 11 C 1.732 -3.5 0.0 0
M  V30 END ATOM
M  V30 BEGIN BOND
M  V30 1 2 1 2
M  V30 2 1 2 3
M  V30 3 1 2 4
M  V30 4 1 3 5
M  V30 5 2 4 6
M  V30 6 1 4 7
M  V30 7 1 6 8
M  V30 8 1 6 9
M  V30 9 2 7 10
M  V30 10 2 9 11
M  V30 11 1 10 11
M  V30 END BOND
M  V30 END CTAB
M  END
>  <Molecule Name>


>  <status>
-

>  <cas>
119-36-8

>  <name>
METHYL SALICYLATE

>  <ID>
1435

>  <Smiles>
COC(c(cccc1)c1O)=O

$$$$

Actelion Java MolfileCreator 2.0

  0  0  0  0  0  0              0 V3000
M  V30 BEGIN CTAB
M  V30 COUNTS 77 82 0 0 0
M  V30 BEGIN ATOM
M  V30 1 S 7.7963 2.2506 0.0 0
M  V30 2 S 9.0705 1.5149 0.0 0
M  V30 3 C 6.4969 1.5004 0.0 0
M  V30 4 C 10.4711 2.3329 0.0 0
M  V30 5 C 6.4969 0.0 0.0 0 CFG=2
M  V30 6 C 11.9741 1.4445 0.0 0 CFG=2
M  V30 7 N 5.1975 -0.7502 0.0 0
M  V30 8 C 7.7963 -0.7502 0.0 0
M  V30 9 N 13.1094 2.3043 0.0 0
M  V30 10 C 11.8845 0.3162 0.0 0
M  V30 11 C 3.8981 0.0 0.0 0
M  V30 12 O 9.0299 -0.0863 0.0 0
M  V30 13 N 7.7963 -2.2506 0.0 0
M  V30 14 C 14.3667 1.6814 0.0 0
M  V30 15 O 10.4438 -0.867 0.0 0
M  V30 16 N 13.3661 -0.7036 0.0 0
M  V30 17 O 3.8981 1.5004 0.0 0
M  V30 18 C 2.5987 -0.7502 0.0 0 CFG=2
M  V30 19 C 9.0957 -3.0008 0.0 0 CFG=2
M  V30 20 O 14.0252 0.2393 0.0 0
M  V30 21 C 15.5927 2.2506 0.0 0 CFG=1
M  V30 22 C 13.1408 -2.1167 0.0 0 CFG=2
M  V30 23 N 2.5987 -2.2506 0.0 0
M  V30 24 C 1.2993 0.0 0.0 0
M  V30 25 C 10.2567 -2.5623 0.0 0
M  V30 26 C 9.0957 -4.5012 0.0 0
M  V30 27 N 16.8921 1.5004 0.0 0
M  V30 28 C 15.5927 3.751 0.0 0
M  V30 29 C 11.6898 -2.7512 0.0 0
M  V30 30 C 13.9526 -2.845 0.0 0 CFG=2
M  V30 31 C 0.0 -0.7502 0.0 0
M  V30 32 O 10.5583 -1.0262 0.0 0
M  V30 33 N 11.8283 -3.1384 0.0 0
M  V30 34 C 7.7963 -5.2514 0.0 0
M  V30 35 C 16.8921 0.0 0.0 0
M  V30 36 C 16.8921 4.5012 0.0 0
M  V30 37 C 14.2933 4.5012 0.0 0
M  V30 38 O 11.6945 -4.5012 0.0 0
M  V30 39 N 10.1227 -2.0551 0.0 0
M  V30 40 O 15.4051 -2.063 0.0 0
M  V30 41 C 13.9578 -4.3334 0.0 0
M  V30 42 C -1.2993 0.0 0.0 0
M  V30 43 C 0.0 -2.2506 0.0 0
M  V30 44 C 12.8939 -2.5757 0.0 0 CFG=1
M  V30 45 C 7.7963 -6.7518 0.0 0
M  V30 46 C 6.4969 -4.5012 0.0 0
M  V30 47 O 18.1915 -0.7502 0.0 0
M  V30 48 C 15.5927 -0.7502 0.0 0 CFG=2
M  V30 49 C -2.5987 -0.7502 0.0 0
M  V30 50 C -1.2993 -3.0008 0.0 0
M  V30 51 C 14.4542 -3.0928 0.0 0
M  V30 52 C 12.8423 -0.8565 0.0 0
M  V30 53 C 6.4969 -7.502 0.0 0
M  V30 54 C 5.1975 -5.2514 0.0 0
M  V30 55 N 15.7642 -2.422 0.0 0
M  V30 56 C 14.4391 -0.1301 0.0 0
M  V30 57 C -2.5987 -2.2506 0.0 0
M  V30 58 C -3.8981 0.0 0.0 0
M  V30 59 O 14.461 -4.5851 0.0 0
M  V30 60 C 11.6953 -0.1896 0.0 0
M  V30 61 C 5.1975 -6.7518 0.0 0
M  V30 62 C 14.2506 1.1328 0.0 0
M  V30 63 C -3.8981 -3.0008 0.0 0
M  V30 64 C -5.1975 -0.7502 0.0 0
M  V30 65 C 11.3863 1.4217 0.0 0
M  V30 66 C 10.2233 -0.4541 0.0 0
M  V30 67 O 3.8981 -7.502 0.0 0
M  V30 68 C 12.979 2.05 0.0 0
M  V30 69 C -5.1975 -2.2506 0.0 0
M  V30 70 C 10.1195 1.6798 0.0 0
M  V30 71 C 12.4694 2.6484 0.0 0
M  V30 72 N 9.3401 0.5459 0.0 0
M  V30 73 C 12.9939 3.751 0.0 0
M  V30 74 C 9.6064 3.2311 0.0 0
M  V30 75 C 11.9455 3.8356 0.0 0
M  V30 76 N 11.6908 4.6206 0.0 0
M  V30 77 C 10.6104 4.3461 0.0 0
M  V30 END ATOM
M  V30 BEGIN BOND
M  V30 1 1 1 2
M  V30 2 1 1 3
M  V30 3 1 2 4
M  V30 4 1 5 3
M  V30 5 1 6 4
M  V30 6 1 5 7 CFG=1
M  V30 7 1 5 8
M  V30 8 1 6 9
M  V30 9 1 6 10 CFG=3
M  V30 10 1 7 11
M  V30 11 2 8 12
M  V30 12 1 8 13
M  V30 13 1 9 14
M  V30 14 2 10 15
M  V30 15 1 10 16
M  V30 16 2 11 17
M  V30 17 1 18 11
M  V30 18 1 19 13
M  V30 19 2 14 20
M  V30 20 1 21 14
M  V30 21 1 22 16 CFG=1
M  V30 22 1 18 23 CFG=3
M  V30 23 1 18 24
M  V30 24 1 19 25
M  V30 25 1 19 26 CFG=3
M  V30 26 1 21 27
M  V30 27 1 21 28 CFG=3
M  V30 28 1 22 29
M  V30 29 1 30 22
M  V30 30 1 24 31
M  V30 31 2 25 32
M  V30 32 1 25 33
M  V30 33 1 26 34
M  V30 34 1 27 35
M  V30 35 1 28 36
M  V30 36 1 28 37
M  V30 37 2 29 38
M  V30 38 1 29 39
M  V30 39 1 30 40 CFG=3
M  V30 40 1 30 41
M  V30 41 2 31 42
M  V30 42 1 31 43
M  V30 43 1 44 33
M  V30 44 2 34 45
M  V30 45 1 34 46
M  V30 46 2 35 47
M  V30 47 1 48 35
M  V30 48 1 42 49
M  V30 49 2 43 50
M  V30 50 1 44 51
M  V30 51 1 44 52 CFG=3
M  V30 52 1 45 53
M  V30 53 2 46 54
M  V30 54 1 48 55
M  V30 55 1 48 56 CFG=3
M  V30 56 1 49 57
M  V30 57 2 49 58
M  V30 58 2 51 59
M  V30 59 1 52 60
M  V30 60 2 53 61
M  V30 61 1 56 62
M  V30 62 2 57 63
M  V30 63 1 58 64
M  V30 64 1 60 65
M  V30 65 2 60 66
M  V30 66 1 61 67
M  V30 67 1 62 68
M  V30 68 1 63 69
M  V30 69 2 65 70
M  V30 70 1 65 71
M  V30 71 1 66 72
M  V30 72 1 68 73
M  V30 73 1 70 74
M  V30 74 2 71 75
M  V30 75 1 73 76
M  V30 76 2 74 77
M  V30 77 1 50 57
M  V30 78 1 51 55
M  V30 79 1 54 61
M  V30 80 2 64 69
M  V30 81 1 70 72
M  V30 82 1 75 77
M  V30 END BOND
M  V30 BEGIN COLLECTION
M  V30 MDLV30/STERAC1 ATOMS=(9 5 6 18 19 21 22 30 44 48)
M  V30 END COLLECTION
M  V30 END CTAB
M  END
>  <Molecule Name>


>  <status>
-

>  <cas>
108736-35-2

>  <name>
LANREOTIDE

>  <ID>
1436

>  <Smiles>
CC(C)[C@@H](C(N[C@@H](CSSC[C@@H](C(N[C@@H](Cc(cc1)ccc1O)C(N[C@H](Cc1c[nH]c2c1cccc2)C(N[C@@H]1CCCCN)=O)=O)=O)NC([C@@H](Cc2cc3ccccc3cc2)N)=O)C(N[C@@H]([C@@H](C)O)C(N)=O)=O)=O)NC1=O

$$$$

Actelion Java MolfileCreator 2.0

  0  0  0  0  0  0              0 V3000
M  V30 BEGIN CTAB
M  V30 COUNTS 28 30 0 0 0
M  V30 BEGIN ATOM
M  V30 1 O 5.2958 2.2931 0.0 0
M  V30 2 C 3.9718 1.5287 0.0 0
M  V30 3 O 2.6479 2.2931 0.0 0 CHG=-1
M  V30 4 C 3.9718 0.0 0.0 0 CFG=1
M  V30 5 O 5.3675 -0.586 0.0 0
M  V30 6 C 2.6479 -0.7643 0.0 0
M  V30 7 C 6.6198 0.0 0.0 0
M  V30 8 O 1.3239 0.0 0.0 0
M  V30 9 C 2.6479 -2.2931 0.0 0
M  V30 10 C 3.9718 -1.5287 0.0 0
M  V30 11 N 7.9437 -0.7643 0.0 0
M  V30 12 N 6.6198 1.5287 0.0 0
M  V30 13 C 0.0 -0.7643 0.0 0
M  V30 14 C 1.3239 -3.0575 0.0 0
M  V30 15 C 3.5896 -3.0575 0.0 0
M  V30 16 C 4.1628 -3.0336 0.0 0
M  V30 17 C 5.1159 -1.1016 0.0 0
M  V30 18 C 9.2677 0.0 0.0 0
M  V30 19 C 7.9437 2.2931 0.0 0
M  V30 20 C 1.3239 -4.5863 0.0 0
M  V30 21 C 3.9718 -4.5863 0.0 0
M  V30 22 C 5.2958 -3.8219 0.0 0
M  V30 23 C 6.6198 -1.5287 0.0 0
M  V30 24 C 9.2677 1.5287 0.0 0
M  V30 25 C 10.5916 -0.7643 0.0 0
M  V30 26 C 7.9437 3.8219 0.0 0
M  V30 27 C 2.6479 -5.3507 0.0 0
M  V30 28 C 6.6198 -3.0575 0.0 0
M  V30 END ATOM
M  V30 BEGIN BOND
M  V30 1 2 1 2
M  V30 2 1 2 3
M  V30 3 1 4 2
M  V30 4 1 4 5 CFG=1
M  V30 5 1 4 6
M  V30 6 1 5 7
M  V30 7 1 6 8
M  V30 8 1 6 9
M  V30 9 1 6 10
M  V30 10 2 7 11
M  V30 11 1 7 12
M  V30 12 1 8 13
M  V30 13 2 9 14
M  V30 14 1 9 15
M  V30 15 2 10 16
M  V30 16 1 10 17
M  V30 17 1 11 18
M  V30 18 2 12 19
M  V30 19 1 14 20
M  V30 20 2 15 21
M  V30 21 1 16 22
M  V30 22 2 17 23
M  V30 23 2 18 24
M  V30 24 1 18 25
M  V30 25 1 19 26
M  V30 26 2 20 27
M  V30 27 2 22 28
M  V30 28 1 19 24
M  V30 29 1 21 27
M  V30 30 1 23 28
M  V30 END BOND
M  V30 BEGIN COLLECTION
M  V30 MDLV30/STERAC1 ATOMS=(1 4)
M  V30 END COLLECTION
M  V30 END CTAB
M  END
>  <Molecule Name>


>  <status>
-

>  <cas>
177036-94-1

>  <name>
AMBRISENTAN

>  <ID>
1437

>  <Smiles>
Cc1nc(OC(C(c2ccccc2)(c2ccccc2)OC)C([O-])=O)nc(C)c1

$$$$
Molecule-1
Actelion Java MolfileCreator 2.0

  0  0  0  0  0  0              0 V3000
M  V30 BEGIN CTAB
M  V30 COUNTS 32 34 0 0 0
M  V30 BEGIN ATOM
M  V30 1 F 9.0932 -3.0 0.0 0
M  V30 2 C 7.7942 -2.25 0.0 0
M  V30 3 C 7.7942 -0.75 0.0 0
M  V30 4 C 6.4951 -3.0 0.0 0
M  V30 5 C 6.4951 0.0 0.0 0
M  V30 6 C 5.1961 -2.25 0.0 0
M  V30 7 C 5.1961 -0.75 0.0 0
M  V30 8 C 3.8971 0.0 0.0 0
M  V30 9 N 2.598 -0.75 0.0 0
M  V30 10 C 1.299 0.0 0.0 0
M  V30 11 O 1.299 1.5 0.0 0
M  V30 12 C 0.0 -0.75 0.0 0
M  V30 13 N -1.299 0.0 0.0 0
M  V30 14 C 0.0 -2.25 0.0 0
M  V30 15 C -2.598 -0.75 0.0 0
M  V30 16 O 1.299 -3.0 0.0 0
M  V30 17 C -1.299 -3.0 0.0 0
M  V30 18 N -2.598 -2.25 0.0 0
M  V30 19 C -3.8971 0.0 0.0 0
M  V30 20 O -1.299 -4.5 0.0 0
M  V30 21 C -3.8971 -3.0 0.0 0
M  V30 22 N -5.1961 -0.75 0.0 0
M  V30 23 C -3.1471 1.299 0.0 0
M  V30 24 C -4.6471 1.299 0.0 0
M  V30 25 C -6.4951 0.0 0.0 0
M  V30 26 O -6.4951 1.5 0.0 0
M  V30 27 C -7.7942 -0.75 0.0 0
M  V30 28 O -9.1645 -0.1398 0.0 0
M  V30 29 N -7.951 -2.2417 0.0 0
M  V30 30 C -10.1682 -1.2546 0.0 0
M  V30 31 N -9.4182 -2.5536 0.0 0
M  V30 32 C -11.66 -1.0978 0.0 0
M  V30 END ATOM
M  V30 BEGIN BOND
M  V30 1 1 1 2
M  V30 2 2 2 3
M  V30 3 1 2 4
M  V30 4 1 3 5
M  V30 5 2 4 6
M  V30 6 2 5 7
M  V30 7 1 7 8
M  V30 8 1 8 9
M  V30 9 1 9 10
M  V30 10 2 10 11
M  V30 11 1 10 12
M  V30 12 1 12 13
M  V30 13 2 12 14
M  V30 14 2 13 15
M  V30 15 1 14 16
M  V30 16 1 14 17
M  V30 17 1 15 18
M  V30 18 1 15 19
M  V30 19 2 17 20
M  V30 20 1 18 21
M  V30 21 1 19 22
M  V30 22 1 19 23
M  V30 23 1 19 24
M  V30 24 1 22 25
M  V30 25 2 25 26
M  V30 26 1 25 27
M  V30 27 1 27 28
M  V30 28 2 27 29
M  V30 29 1 28 30
M  V30 30 1 29 31
M  V30 31 1 30 32
M  V30 32 1 6 7
M  V30 33 1 17 18
M  V30 34 2 30 31
M  V30 END BOND
M  V30 END CTAB
M  END
>  <Molecule Name>
Molecule-1

>  <status>
-

>  <cas>
518048-05-0

>  <name>
RALTEGRAVIR

>  <ID>
1438

>  <Smiles>
CC(C)(C(N(C)C1=O)=NC(C(NCc(cc2)ccc2F)=O)=C1O)NC(c1nnc(C)o1)=O

$$$$
_c001
Actelion Java MolfileCreator 2.0

  0  0  0  0  0  0              0 V3000
M  V30 BEGIN CTAB
M  V30 COUNTS 30 31 0 0 0
M  V30 BEGIN ATOM
M  V30 1 Cl 9.1132 1.6931 0.0 0
M  V30 2 C 10.4787 2.2687 0.0 0
M  V30 3 C 10.4787 3.7811 0.0 0
M  V30 4 C 11.7885 1.5124 0.0 0
M  V30 5 Cl 9.1688 4.5374 0.0 0
M  V30 6 C 11.7885 4.5374 0.0 0
M  V30 7 C 13.0984 2.2687 0.0 0
M  V30 8 C 11.7885 0.0 0.0 0 CFG=2
M  V30 9 C 13.0984 3.7811 0.0 0
M  V30 10 C 10.4787 -0.7562 0.0 0
M  V30 11 C 13.0984 -0.7562 0.0 0
M  V30 12 C 10.4787 -2.2687 0.0 0
M  V30 13 C 9.1688 0.0 0.0 0
M  V30 14 C 13.0984 -2.2687 0.0 0
M  V30 15 C 14.4082 0.0 0.0 0
M  V30 16 N 11.7885 -3.0249 0.0 0
M  V30 17 C 9.1688 -3.0249 0.0 0
M  V30 18 O 9.28 1.151 0.0 0
M  V30 19 O 7.859 -0.7562 0.0 0
M  V30 20 C 14.4082 -3.0249 0.0 0
M  V30 21 O 15.7181 -0.7562 0.0 0
M  V30 22 O 14.4082 1.5124 0.0 0
M  V30 23 C 6.5492 0.0 0.0 0
M  V30 24 C 15.7181 2.2687 0.0 0
M  V30 25 O 5.2393 -0.7562 0.0 0
M  V30 26 C 3.9295 0.0 0.0 0
M  V30 27 O 3.9295 1.5124 0.0 0
M  V30 28 C 2.6196 -0.7562 0.0 0
M  V30 29 C 1.3098 0.0 0.0 0
M  V30 30 C 0.0 -0.7562 0.0 0
M  V30 END ATOM
M  V30 BEGIN BOND
M  V30 1 1 1 2
M  V30 2 2 2 3
M  V30 3 1 2 4
M  V30 4 1 3 5
M  V30 5 1 3 6
M  V30 6 2 4 7
M  V30 7 1 8 4 CFG=1
M  V30 8 2 6 9
M  V30 9 1 8 10
M  V30 10 1 8 11
M  V30 11 2 10 12
M  V30 12 1 10 13
M  V30 13 2 11 14
M  V30 14 1 11 15
M  V30 15 1 12 16
M  V30 16 1 12 17
M  V30 17 2 13 18
M  V30 18 1 13 19
M  V30 19 1 14 20
M  V30 20 2 15 21
M  V30 21 1 15 22
M  V30 22 1 19 23
M  V30 23 1 22 24
M  V30 24 1 23 25
M  V30 25 1 25 26
M  V30 26 2 26 27
M  V30 27 1 26 28
M  V30 28 1 28 29
M  V30 29 1 29 30
M  V30 30 1 7 9
M  V30 31 1 14 16
M  V30 END BOND
M  V30 BEGIN COLLECTION
M  V30 MDLV30/STERAC1 ATOMS=(1 8)
M  V30 END COLLECTION
M  V30 END CTAB
M  END
>  <Molecule Name>
_c001

>  <status>
-

>  <cas>
167221-71-8

>  <name>
CLEVIDIPINE

>  <ID>
1439

>  <Smiles>
CCCC(OCOC(C(C1c2cccc(Cl)c2Cl)=C(C)NC(C)=C1C(OC)=O)=O)=O

$$$$

Actelion Java MolfileCreator 2.0

  0  0  0  0  0  0              0 V3000
M  V30 BEGIN CTAB
M  V30 COUNTS 17 18 0 0 0
M  V30 BEGIN ATOM
M  V30 1 O 5.1961 -1.4999 0.0 0
M  V30 2 C 5.1961 -0.4999 0.0 0
M  V30 3 N 6.0621 0.0 0.0 0
M  V30 4 C 4.3301 0.0 0.0 0
M  V30 5 C 6.0621 1.0 0.0 0
M  V30 6 N 3.4641 -0.5 0.0 0
M  V30 7 C 4.3301 0.9999 0.0 0
M  V30 8 N 5.1961 1.4999 0.0 0
M  V30 9 N 6.9282 1.5 0.0 0
M  V30 10 C 2.598 0.0 0.0 0 CFG=2
M  V30 11 N 3.4641 1.4999 0.0 0
M  V30 12 C 1.732 -0.5 0.0 0 CFG=2
M  V30 13 C 2.598 0.9999 0.0 0
M  V30 14 O 1.732 -1.5 0.0 0
M  V30 15 C 0.866 0.0 0.0 0 CFG=2
M  V30 16 O 0.866 1.0 0.0 0
M  V30 17 C 0.0 -0.5 0.0 0
M  V30 END ATOM
M  V30 BEGIN BOND
M  V30 1 2 1 2
M  V30 2 1 2 3
M  V30 3 1 2 4
M  V30 4 2 3 5
M  V30 5 1 4 6
M  V30 6 2 4 7
M  V30 7 1 5 8
M  V30 8 1 5 9
M  V30 9 1 10 6 CFG=3
M  V30 10 1 7 11
M  V30 11 1 12 10
M  V30 12 1 10 13
M  V30 13 1 12 14 CFG=3
M  V30 14 1 15 12
M  V30 15 1 15 16 CFG=1
M  V30 16 1 15 17
M  V30 17 1 7 8
M  V30 18 1 11 13
M  V30 END BOND
M  V30 BEGIN COLLECTION
M  V30 MDLV30/STERAC1 ATOMS=(3 10 12 15)
M  V30 END COLLECTION
M  V30 END CTAB
M  END
>  <Molecule Name>


>  <status>
-

>  <cas>
62989-33-7

>  <name>
SAPROPTERIN

>  <ID>
1440

>  <Smiles>
C[C@H]([C@H]([C@H](CN1)NC2=C1NC(N)=NC2=O)O)O

$$$$
Molecule-1
Actelion Java MolfileCreator 2.0

  0  0  0  0  0  0              0 V3000
M  V30 BEGIN CTAB
M  V30 COUNTS 28 30 0 0 0
M  V30 BEGIN ATOM
M  V30 1 Br 3.8971 1.5 0.0 0
M  V30 2 C 3.8971 0.0 0.0 0
M  V30 3 C 2.598 -0.75 0.0 0
M  V30 4 C 5.1961 -0.7499 0.0 0
M  V30 5 O 1.299 0.0 0.0 0
M  V30 6 N 2.598 -2.25 0.0 0
M  V30 7 N 5.1961 -2.2499 0.0 0
M  V30 8 N 6.4951 0.0 0.0 0
M  V30 9 C 0.0 -0.75 0.0 0
M  V30 10 C 3.8971 -2.9999 0.0 0
M  V30 11 C -1.299 0.0 0.0 0
M  V30 12 C 0.0 -2.2499 0.0 0
M  V30 13 N 3.8971 -4.4999 0.0 0
M  V30 14 C -2.598 -0.7499 0.0 0
M  V30 15 C -1.299 1.5 0.0 0
M  V30 16 C -1.299 -2.9999 0.0 0
M  V30 17 C 1.299 -3.0 0.0 0
M  V30 18 C 5.1961 -5.2499 0.0 0
M  V30 19 C -2.598 -2.2499 0.0 0
M  V30 20 C 5.1961 -6.7499 0.0 0
M  V30 21 C 6.4951 -4.4999 0.0 0
M  V30 22 C -3.8971 -2.9999 0.0 0
M  V30 23 C 6.4951 -7.4999 0.0 0
M  V30 24 C 7.7942 -5.2499 0.0 0
M  V30 25 N -5.1961 -3.7499 0.0 0
M  V30 26 C 7.7942 -6.7499 0.0 0
M  V30 27 C 9.0932 -7.4999 0.0 0
M  V30 28 N 10.3923 -8.2499 0.0 0
M  V30 END ATOM
M  V30 BEGIN BOND
M  V30 1 1 1 2
M  V30 2 2 2 3
M  V30 3 1 2 4
M  V30 4 1 3 5
M  V30 5 1 3 6
M  V30 6 2 4 7
M  V30 7 1 4 8
M  V30 8 1 5 9
M  V30 9 2 6 10
M  V30 10 2 9 11
M  V30 11 1 9 12
M  V30 12 1 10 13
M  V30 13 1 11 14
M  V30 14 1 11 15
M  V30 15 2 12 16
M  V30 16 1 12 17
M  V30 17 1 13 18
M  V30 18 2 14 19
M  V30 19 2 18 20
M  V30 20 1 18 21
M  V30 21 1 19 22
M  V30 22 1 20 23
M  V30 23 2 21 24
M  V30 24 3 22 25
M  V30 25 2 23 26
M  V30 26 1 26 27
M  V30 27 3 27 28
M  V30 28 1 7 10
M  V30 29 1 16 19
M  V30 30 1 24 26
M  V30 END BOND
M  V30 END CTAB
M  END
>  <Molecule Name>
Molecule-1

>  <status>
-

>  <cas>
269055-15-4

>  <name>
ETRAVIRINE

>  <ID>
1441

>  <Smiles>
Cc1cc(C#N)cc(C)c1Oc(nc(Nc(cc1)ccc1C#N)nc1N)c1Br

$$$$

Actelion Java MolfileCreator 2.0

  0  0  0  0  0  0              0 V3000
M  V30 BEGIN CTAB
M  V30 COUNTS 36 39 0 0 0
M  V30 BEGIN ATOM
M  V30 1 F -0.0916 -3.9138 0.0 0
M  V30 2 C -0.7225 -3.3966 0.0 0 CFG=2
M  V30 3 C -1.0315 -4.3476 0.0 0 CFG=2
M  V30 4 C 0.2555 -3.1887 0.0 0 CFG=1
M  V30 5 C -1.3916 -2.6534 0.0 0 CFG=2
M  V30 6 C -2.0097 -4.5556 0.0 0
M  V30 7 C -0.3624 -5.0908 0.0 0
M  V30 8 C 0.1965 -4.1397 0.0 0
M  V30 9 O 0.9247 -3.9318 0.0 0
M  V30 10 C 0.526 -2.2714 0.0 0
M  V30 11 C -1.0826 -1.7024 0.0 0 CFG=1
M  V30 12 C -2.3698 -2.8614 0.0 0
M  V30 13 C -2.3187 -5.5066 0.0 0
M  V30 14 C -2.6788 -3.8124 0.0 0 CFG=2
M  V30 15 C -0.6714 -6.0418 0.0 0
M  V30 16 C -0.1045 -1.4945 0.0 0 CFG=1
M  V30 17 C -1.5826 -0.8364 0.0 0
M  V30 18 C -1.6496 -6.2498 0.0 0
M  V30 19 F -3.657 -4.0203 0.0 0
M  V30 20 C 0.0 -0.5 0.0 0 CFG=1
M  V30 21 C 0.9358 -1.3027 0.0 0
M  V30 22 C -0.9135 -0.0932 0.0 0
M  V30 23 O -1.9586 -7.2008 0.0 0
M  V30 24 O 0.866 0.0 0.0 0
M  V30 25 C 0.8179 -0.9322 0.0 0
M  V30 26 C 0.866 0.9999 0.0 0
M  V30 27 O 0.8634 -1.9756 0.0 0
M  V30 28 C 1.7296 -0.5906 0.0 0
M  V30 29 O 0.0 1.5 0.0 0
M  V30 30 C 1.732 1.4999 0.0 0
M  V30 31 O 1.782 0.4079 0.0 0
M  V30 32 C 1.732 2.4999 0.0 0
M  V30 33 C 2.673 0.8619 0.0 0
M  V30 34 C 2.598 3.0 0.0 0
M  V30 35 O 3.5116 0.3173 0.0 0
M  V30 36 C 2.7253 1.8606 0.0 0
M  V30 END ATOM
M  V30 BEGIN BOND
M  V30 1 1 2 1 CFG=1
M  V30 2 1 3 2
M  V30 3 1 4 2
M  V30 4 1 5 2
M  V30 5 1 3 6
M  V30 6 1 3 7
M  V30 7 1 3 8 CFG=3
M  V30 8 1 4 9 CFG=3
M  V30 9 1 4 10
M  V30 10 1 11 5
M  V30 11 1 5 12 CFG=1
M  V30 12 2 6 13
M  V30 13 1 14 6
M  V30 14 2 7 15
M  V30 15 1 16 10
M  V30 16 1 11 17 CFG=3
M  V30 17 1 13 18
M  V30 18 1 14 19 CFG=1
M  V30 19 1 20 16
M  V30 20 1 16 21 CFG=3
M  V30 21 1 17 22
M  V30 22 2 18 23
M  V30 23 1 20 24
M  V30 24 1 20 25 CFG=3
M  V30 25 1 24 26
M  V30 26 2 25 27
M  V30 27 1 25 28
M  V30 28 2 26 29
M  V30 29 1 26 30
M  V30 30 1 28 31
M  V30 31 1 30 32
M  V30 32 1 31 33
M  V30 33 1 32 34
M  V30 34 2 33 35
M  V30 35 1 33 36
M  V30 36 1 11 16
M  V30 37 1 12 14
M  V30 38 1 15 18
M  V30 39 1 20 22
M  V30 END BOND
M  V30 BEGIN COLLECTION
M  V30 MDLV30/STERAC1 ATOMS=(8 2 3 4 5 11 14 16 20)
M  V30 END COLLECTION
M  V30 END CTAB
M  END
>  <Molecule Name>


>  <status>
-

>  <cas>
23674-86-4

>  <name>
DIFLUPREDNATE

>  <ID>
1442

>  <Smiles>
CCCC(O[C@](CC1)([C@@](C)(C[C@@H]2O)[C@@H]1[C@H](C[C@@H](C([C@]1(C)C=C3)=CC3=O)F)[C@@]12F)C(COC(C)=O)=O)=O

$$$$
Molecule-1
Actelion Java MolfileCreator 2.0

  0  0  0  0  0  0              0 V3000
M  V30 BEGIN CTAB
M  V30 COUNTS 23 24 0 0 0
M  V30 BEGIN ATOM
M  V30 1 Cl 5.1961 -0.5 0.0 0
M  V30 2 C 4.3301 0.0 0.0 0
M  V30 3 C 3.4641 -0.5 0.0 0
M  V30 4 N 2.598 0.0 0.0 0
M  V30 5 C 2.598 1.0 0.0 0
M  V30 6 C 1.732 -0.5 0.0 0
M  V30 7 C 3.4641 1.5 0.0 0
M  V30 8 C 1.732 1.4999 0.0 0
M  V30 9 C 0.866 0.0 0.0 0
M  V30 10 C 3.4641 2.5 0.0 0
M  V30 11 C 1.732 2.4999 0.0 0
M  V30 12 Cl 0.0 -0.5 0.0 0
M  V30 13 N 4.2072 3.1691 0.0 0
M  V30 14 C 2.598 3.0 0.0 0
M  V30 15 C 3.8005 4.0826 0.0 0
M  V30 16 N 2.8059 3.9781 0.0 0
M  V30 17 C 4.3005 4.9487 0.0 0
M  V30 18 C 2.1368 4.7212 0.0 0
M  V30 19 C 5.3005 4.9487 0.0 0
M  V30 20 C 5.8005 5.8147 0.0 0
M  V30 21 C 6.8005 5.8147 0.0 0
M  V30 22 O 7.3005 4.9487 0.0 0
M  V30 23 O 7.3005 6.6807 0.0 0 CHG=-1
M  V30 END ATOM
M  V30 BEGIN BOND
M  V30 1 1 1 2
M  V30 2 1 2 3
M  V30 3 1 3 4
M  V30 4 1 4 5
M  V30 5 1 4 6
M  V30 6 2 5 7
M  V30 7 1 5 8
M  V30 8 1 6 9
M  V30 9 1 7 10
M  V30 10 2 8 11
M  V30 11 1 9 12
M  V30 12 1 10 13
M  V30 13 2 10 14
M  V30 14 2 13 15
M  V30 15 1 14 16
M  V30 16 1 15 17
M  V30 17 1 16 18
M  V30 18 1 17 19
M  V30 19 1 19 20
M  V30 20 1 20 21
M  V30 21 2 21 22
M  V30 22 1 21 23
M  V30 23 1 11 14
M  V30 24 1 15 16
M  V30 END BOND
M  V30 END CTAB
M  END
>  <Molecule Name>
Molecule-1

>  <status>
-

>  <cas>
16506-27-7

>  <name>
BENDAMUSTINE

>  <ID>
1443

>  <Smiles>
Cn1c(ccc(N(CCCl)CCCl)c2)c2nc1CCCC([O-])=O

$$$$

Actelion Java MolfileCreator 2.0

  0  0  0  0  0  0              0 V3000
M  V30 BEGIN CTAB
M  V30 COUNTS 76 83 0 0 0
M  V30 BEGIN ATOM
M  V30 1 O 2.598 -5.25 0.0 0
M  V30 2 C 3.8971 -4.5 0.0 0
M  V30 3 C 5.1961 -5.25 0.0 0
M  V30 4 C 3.8971 -3.0 0.0 0 CFG=1
M  V30 5 C 5.1961 -6.75 0.0 0
M  V30 6 C 6.4951 -4.5 0.0 0
M  V30 7 O 2.598 -2.25 0.0 0
M  V30 8 C 5.1961 -2.25 0.0 0 CFG=1
M  V30 9 O 3.8971 -7.5 0.0 0
M  V30 10 C 6.4951 -7.5 0.0 0
M  V30 11 C 7.7942 -5.25 0.0 0
M  V30 12 C 6.4951 -3.0 0.0 0
M  V30 13 C 1.299 -3.0 0.0 0 CFG=2
M  V30 14 C 5.1961 -0.75 0.0 0 CFG=2
M  V30 15 C 6.4951 -9.0 0.0 0
M  V30 16 C 7.7942 -6.75 0.0 0
M  V30 17 O 1.299 -4.5 0.0 0
M  V30 18 C 0.0 -2.25 0.0 0
M  V30 19 O 3.8971 0.0 0.0 0
M  V30 20 C 6.4951 0.0 0.0 0
M  V30 21 O 5.1961 -9.75 0.0 0
M  V30 22 C 7.7942 -9.75 0.0 0
M  V30 23 C 9.0932 -7.5 0.0 0
M  V30 24 C 0.0 -5.25 0.0 0 CFG=1
M  V30 25 C -1.299 -3.0 0.0 0 CFG=2
M  V30 26 C 2.598 -0.75 0.0 0
M  V30 27 O 6.4951 1.5 0.0 0
M  V30 28 C 7.7942 -0.75 0.0 0 CFG=1
M  V30 29 C 9.0932 -9.0 0.0 0
M  V30 30 C 7.7942 -11.25 0.0 0
M  V30 31 C -1.299 -4.5 0.0 0 CFG=2
M  V30 32 C 0.0 -6.75 0.0 0
M  V30 33 O -2.598 -2.25 0.0 0
M  V30 34 O 7.7942 -2.25 0.0 0
M  V30 35 C 9.0932 0.0 0.0 0 CFG=2
M  V30 36 O 10.3923 -9.75 0.0 0
M  V30 37 O -2.598 -5.25 0.0 0
M  V30 38 C -2.598 -0.75 0.0 0 CFG=2
M  V30 39 O 9.0932 1.5 0.0 0
M  V30 40 C 10.3923 -0.75 0.0 0
M  V30 41 C 11.6913 -9.0 0.0 0 CFG=2
M  V30 42 O -3.8971 0.0 0.0 0
M  V30 43 C -1.299 0.0 0.0 0
M  V30 44 O 12.9903 -9.75 0.0 0
M  V30 45 C 11.6913 -7.5 0.0 0
M  V30 46 C -3.8971 1.5 0.0 0 CFG=1
M  V30 47 C -1.299 1.5 0.0 0 CFG=2
M  V30 48 C 14.2894 -9.0 0.0 0 CFG=1
M  V30 49 C 12.9903 -6.75 0.0 0 CFG=2
M  V30 50 C -2.598 2.25 0.0 0 CFG=1
M  V30 51 C -5.1961 2.25 0.0 0
M  V30 52 O 0.0 2.25 0.0 0
M  V30 53 C 14.2894 -7.5 0.0 0 CFG=2
M  V30 54 C 15.5884 -9.75 0.0 0
M  V30 55 O 12.9903 -5.25 0.0 0
M  V30 56 O -2.598 3.75 0.0 0
M  V30 57 C 0.0 3.75 0.0 0 CFG=2
M  V30 58 O 15.5884 -6.75 0.0 0
M  V30 59 C 14.2894 -4.5 0.0 0 CFG=2
M  V30 60 O 1.299 4.5 0.0 0
M  V30 61 C -1.299 4.5 0.0 0
M  V30 62 O 14.2894 -3.0 0.0 0
M  V30 63 C 15.5884 -5.25 0.0 0
M  V30 64 C 1.299 6.0 0.0 0 CFG=1
M  V30 65 C -1.299 6.0 0.0 0 CFG=1
M  V30 66 C 15.5884 -2.25 0.0 0 CFG=1
M  V30 67 C 16.8875 -4.5 0.0 0 CFG=2
M  V30 68 C 0.0 6.75 0.0 0 CFG=2
M  V30 69 C 2.598 6.75 0.0 0
M  V30 70 O -2.049 7.299 0.0 0
M  V30 71 C -2.799 5.9999 0.0 0
M  V30 72 C 16.8875 -3.0 0.0 0 CFG=2
M  V30 73 C 15.5884 -0.75 0.0 0
M  V30 74 O 18.1865 -5.25 0.0 0
M  V30 75 O 0.0 8.25 0.0 0
M  V30 76 O 18.1865 -2.25 0.0 0
M  V30 END ATOM
M  V30 BEGIN BOND
M  V30 1 2 1 2
M  V30 2 1 2 3
M  V30 3 1 4 2
M  V30 4 2 3 5
M  V30 5 1 3 6
M  V30 6 1 4 7 CFG=1
M  V30 7 1 8 4
M  V30 8 1 5 9
M  V30 9 1 5 10
M  V30 10 2 6 11
M  V30 11 1 6 12
M  V30 12 1 13 7 CFG=3
M  V30 13 1 14 8
M  V30 14 2 10 15
M  V30 15 1 10 16
M  V30 16 1 13 17
M  V30 17 1 13 18
M  V30 18 1 14 19 CFG=3
M  V30 19 1 14 20
M  V30 20 1 15 21
M  V30 21 1 15 22
M  V30 22 2 16 23
M  V30 23 1 24 17
M  V30 24 1 25 18
M  V30 25 1 19 26
M  V30 26 2 20 27
M  V30 27 1 28 20
M  V30 28 2 22 29
M  V30 29 1 22 30
M  V30 30 1 31 24
M  V30 31 1 24 32 CFG=3
M  V30 32 1 25 33 CFG=3
M  V30 33 1 28 34 CFG=3
M  V30 34 1 35 28
M  V30 35 1 29 36
M  V30 36 1 31 37 CFG=1
M  V30 37 1 38 33 CFG=3
M  V30 38 1 35 39 CFG=3
M  V30 39 1 35 40
M  V30 40 1 41 36 CFG=1
M  V30 41 1 38 42
M  V30 42 1 38 43
M  V30 43 1 41 44
M  V30 44 1 41 45
M  V30 45 1 46 42
M  V30 46 1 47 43
M  V30 47 1 48 44
M  V30 48 1 49 45
M  V30 49 1 50 46
M  V30 50 1 46 51 CFG=3
M  V30 51 1 47 52 CFG=3
M  V30 52 1 53 48
M  V30 53 1 48 54 CFG=1
M  V30 54 1 49 55 CFG=1
M  V30 55 1 50 56 CFG=3
M  V30 56 1 57 52 CFG=1
M  V30 57 1 53 58 CFG=3
M  V30 58 1 59 55 CFG=3
M  V30 59 1 57 60
M  V30 60 1 57 61
M  V30 61 1 59 62
M  V30 62 1 59 63
M  V30 63 1 64 60
M  V30 64 1 65 61
M  V30 65 1 66 62
M  V30 66 1 67 63
M  V30 67 1 68 64
M  V30 68 1 64 69 CFG=1
M  V30 69 1 65 70 CFG=3
M  V30 70 1 65 71
M  V30 71 1 72 66
M  V30 72 1 66 73 CFG=3
M  V30 73 1 67 74 CFG=3
M  V30 74 1 68 75 CFG=3
M  V30 75 1 72 76 CFG=1
M  V30 76 1 8 12 CFG=3
M  V30 77 1 11 16
M  V30 78 1 23 29
M  V30 79 1 25 31
M  V30 80 1 47 50
M  V30 81 1 49 53
M  V30 82 1 65 68
M  V30 83 1 67 72
M  V30 END BOND
M  V30 BEGIN COLLECTION
M  V30 MDLV30/STERAC1 ATOMS=(25 4 8 13 14 24 25 28 31 35 38 41 46 47 48 49 50 53 57 59 64 65 66 67 68 72)
M  V30 END COLLECTION
M  V30 END CTAB
M  END
>  <Molecule Name>


>  <status>
DISCONTINUED

>  <cas>
18378-89-7

>  <name>
PLICAMYCIN

>  <ID>
1444

>  <Smiles>
C[C@H]([C@@H](C([C@H]([C@H](Cc1cc2cc(O[C@@H](C[C@H]3O[C@@H](C[C@H]4O)O[C@H](C)[C@H]4O)O[C@H](C)[C@H]3O)c(C)c(O)c2c(O)c1C1=O)[C@@H]1O[C@@H](C[C@H]1O[C@@H](C[C@H]2O[C@@H](C[C@]3(C)O)O[C@H](C)[C@H]3O)O[C@H](C)[C@@H]2O)O[C@H](C)[C@H]1O)OC)=O)O)O

$$$$

Actelion Java MolfileCreator 2.0

  0  0  0  0  0  0              0 V3000
M  V30 BEGIN CTAB
M  V30 COUNTS 31 32 0 0 0
M  V30 BEGIN ATOM
M  V30 1 Cl 6.4951 0.0 0.0 0
M  V30 2 C 5.1961 -0.75 0.0 0 CFG=1
M  V30 3 C 3.8971 0.0 0.0 0 CFG=2
M  V30 4 C 5.1961 -2.25 0.0 0
M  V30 5 N 2.598 -0.75 0.0 0
M  V30 6 C 3.8971 1.5 0.0 0 CFG=2
M  V30 7 C 1.299 0.0 0.0 0
M  V30 8 O 2.598 2.25 0.0 0
M  V30 9 C 5.1961 2.25 0.0 0 CFG=1
M  V30 10 O 1.299 1.5 0.0 0
M  V30 11 C 0.0 -0.75 0.0 0 CFG=2
M  V30 12 C 2.598 3.75 0.0 0 CFG=1
M  V30 13 O 6.4951 1.5 0.0 0
M  V30 14 C 5.1961 3.75 0.0 0 CFG=2
M  V30 15 N -1.3703 -0.1398 0.0 0
M  V30 16 C -0.1567 -2.2417 0.0 0
M  V30 17 S 1.299 4.5 0.0 0
M  V30 18 C 3.8971 4.5 0.0 0 CFG=2
M  V30 19 O 6.4951 4.5 0.0 0
M  V30 20 C -2.374 -1.2546 0.0 0
M  V30 21 C -1.6821 1.3273 0.0 0
M  V30 22 C -1.624 -2.5536 0.0 0 CFG=1
M  V30 23 C 0.0 3.75 0.0 0
M  V30 24 O 3.8971 6.0 0.0 0
M  V30 25 C -2.2341 -3.9239 0.0 0
M  V30 26 P 2.598 6.75 0.0 0
M  V30 27 C -3.7259 -4.0807 0.0 0
M  V30 28 O 3.348 8.049 0.0 0
M  V30 29 O 1.299 7.5 0.0 0 CHG=-1
M  V30 30 O 1.848 5.4509 0.0 0 CHG=-1
M  V30 31 C -4.336 -5.451 0.0 0
M  V30 END ATOM
M  V30 BEGIN BOND
M  V30 1 1 2 1 CFG=3
M  V30 2 1 3 2
M  V30 3 1 2 4
M  V30 4 1 3 5 CFG=3
M  V30 5 1 6 3
M  V30 6 1 5 7
M  V30 7 1 6 8 CFG=3
M  V30 8 1 9 6
M  V30 9 2 7 10
M  V30 10 1 11 7 CFG=1
M  V30 11 1 12 8
M  V30 12 1 9 13 CFG=3
M  V30 13 1 14 9
M  V30 14 1 11 15
M  V30 15 1 11 16
M  V30 16 1 12 17 CFG=1
M  V30 17 1 18 12
M  V30 18 1 14 19 CFG=3
M  V30 19 1 15 20
M  V30 20 1 15 21
M  V30 21 1 22 16
M  V30 22 1 17 23
M  V30 23 1 18 24 CFG=1
M  V30 24 1 22 25 CFG=3
M  V30 25 1 24 26
M  V30 26 1 25 27
M  V30 27 2 26 28
M  V30 28 1 26 29
M  V30 29 1 26 30
M  V30 30 1 27 31
M  V30 31 1 14 18
M  V30 32 1 20 22
M  V30 END BOND
M  V30 BEGIN COLLECTION
M  V30 MDLV30/STERAC1 ATOMS=(9 2 3 6 9 11 12 14 18 22)
M  V30 END COLLECTION
M  V30 END CTAB
M  END
>  <Molecule Name>


>  <status>
-

>  <cas>
24729-96-2

>  <name>
CLINDAMYCIN PHOSPHATE

>  <ID>
1445

>  <Smiles>
CCC[C@@H](C1)CN(C)[C@H]1C(N[C@@H]([C@@H](C)Cl)[C@@H]([C@H]([C@H]([C@@H]1OP([O-])([O-])=O)O)O)O[C@H]1SC)=O

$$$$

Actelion Java MolfileCreator 2.0

  0  0  0  0  0  0              0 V3000
M  V30 BEGIN CTAB
M  V30 COUNTS 44 45 0 0 0
M  V30 BEGIN ATOM
M  V30 1 Cl 18.1865 0.0 0.0 0
M  V30 2 C 18.1865 0.9999 0.0 0 CFG=1
M  V30 3 C 17.3205 1.4999 0.0 0 CFG=2
M  V30 4 C 19.0525 1.4999 0.0 0
M  V30 5 N 17.3205 2.4999 0.0 0
M  V30 6 C 16.4544 0.9999 0.0 0 CFG=2
M  V30 7 C 16.4544 2.9999 0.0 0
M  V30 8 O 15.5884 1.4999 0.0 0
M  V30 9 C 16.4544 0.0 0.0 0 CFG=1
M  V30 10 O 15.5884 2.5 0.0 0
M  V30 11 C 16.4544 3.9999 0.0 0 CFG=2
M  V30 12 C 14.7224 0.9999 0.0 0 CFG=1
M  V30 13 O 17.3205 -0.5 0.0 0
M  V30 14 C 15.5884 -0.5 0.0 0 CFG=2
M  V30 15 N 15.6454 4.5877 0.0 0
M  V30 16 C 17.2634 4.5877 0.0 0
M  V30 17 S 13.8564 1.4999 0.0 0
M  V30 18 C 14.7224 0.0 0.0 0 CFG=2
M  V30 19 O 15.5884 -1.5 0.0 0
M  V30 20 C 15.9544 5.5388 0.0 0
M  V30 21 C 14.6944 4.2787 0.0 0
M  V30 22 C 16.9544 5.5388 0.0 0 CFG=1
M  V30 23 C 13.8564 2.5 0.0 0
M  V30 24 O 13.8564 -0.5 0.0 0
M  V30 25 C 17.5422 6.3478 0.0 0
M  V30 26 C 12.9903 0.0 0.0 0
M  V30 27 C 17.1355 7.2614 0.0 0
M  V30 28 O 12.9903 1.0 0.0 0
M  V30 29 C 12.1243 -0.5 0.0 0
M  V30 30 C 17.7233 8.0704 0.0 0
M  V30 31 C 11.2583 0.0 0.0 0
M  V30 32 C 10.3923 -0.5 0.0 0
M  V30 33 C 9.5262 0.0 0.0 0
M  V30 34 C 8.6602 -0.5 0.0 0
M  V30 35 C 7.7942 0.0 0.0 0
M  V30 36 C 6.9282 -0.5 0.0 0
M  V30 37 C 6.0621 0.0 0.0 0
M  V30 38 C 5.1961 -0.5 0.0 0
M  V30 39 C 4.3301 0.0 0.0 0
M  V30 40 C 3.4641 -0.5 0.0 0
M  V30 41 C 2.598 0.0 0.0 0
M  V30 42 C 1.732 -0.5 0.0 0
M  V30 43 C 0.866 0.0 0.0 0
M  V30 44 C 0.0 -0.5 0.0 0
M  V30 END ATOM
M  V30 BEGIN BOND
M  V30 1 1 2 1 CFG=1
M  V30 2 1 3 2
M  V30 3 1 2 4
M  V30 4 1 3 5 CFG=1
M  V30 5 1 6 3
M  V30 6 1 5 7
M  V30 7 1 6 8 CFG=1
M  V30 8 1 9 6
M  V30 9 2 7 10
M  V30 10 1 11 7 CFG=3
M  V30 11 1 12 8
M  V30 12 1 9 13 CFG=1
M  V30 13 1 14 9
M  V30 14 1 11 15
M  V30 15 1 11 16
M  V30 16 1 12 17 CFG=3
M  V30 17 1 18 12
M  V30 18 1 14 19 CFG=1
M  V30 19 1 15 20
M  V30 20 1 15 21
M  V30 21 1 22 16
M  V30 22 1 17 23
M  V30 23 1 18 24 CFG=3
M  V30 24 1 22 25 CFG=1
M  V30 25 1 24 26
M  V30 26 1 25 27
M  V30 27 2 26 28
M  V30 28 1 26 29
M  V30 29 1 27 30
M  V30 30 1 29 31
M  V30 31 1 31 32
M  V30 32 1 32 33
M  V30 33 1 33 34
M  V30 34 1 34 35
M  V30 35 1 35 36
M  V30 36 1 36 37
M  V30 37 1 37 38
M  V30 38 1 38 39
M  V30 39 1 39 40
M  V30 40 1 40 41
M  V30 41 1 41 42
M  V30 42 1 42 43
M  V30 43 1 43 44
M  V30 44 1 14 18
M  V30 45 1 20 22
M  V30 END BOND
M  V30 BEGIN COLLECTION
M  V30 MDLV30/STERAC1 ATOMS=(9 2 3 6 9 11 12 14 18 22)
M  V30 END COLLECTION
M  V30 END CTAB
M  END
>  <Molecule Name>


>  <status>
-

>  <cas>
36688-78-5

>  <name>
CLINDAMYCIN PALMITATE

>  <ID>
1446

>  <Smiles>
CCCCCCCCCCCCCCCC(O[C@@H]([C@@H]([C@@H]([C@H]([C@H]([C@@H](C)Cl)NC([C@@H]1N(C)C[C@@H](CCC)C1)=O)O1)O)O)[C@@H]1SC)=O

$$$$

Actelion Java MolfileCreator 2.0

  0  0  0  0  0  0              0 V3000
M  V30 BEGIN CTAB
M  V30 COUNTS 35 39 0 0 0
M  V30 BEGIN ATOM
M  V30 1 S 8.1039 -3.6968 0.0 0
M  V30 2 C 9.5043 -4.2343 0.0 0
M  V30 3 C 8.1824 -2.1988 0.0 0 CFG=2
M  V30 4 C 10.4483 -3.0686 0.0 0 CFG=2
M  V30 5 C 9.116 -5.6832 0.0 0
M  V30 6 C 10.5649 -5.295 0.0 0
M  V30 7 N 9.6313 -1.8106 0.0 0
M  V30 8 C 7.7942 -0.75 0.0 0 CFG=2
M  V30 9 C 11.9462 -3.1471 0.0 0
M  V30 10 C 9.2431 -0.3617 0.0 0
M  V30 11 N 6.4951 0.0 0.0 0
M  V30 12 O 12.6272 -4.4836 0.0 0
M  V30 13 O 12.7632 -1.8891 0.0 0 CHG=-1
M  V30 14 O 9.9931 0.9372 0.0 0
M  V30 15 C 5.1961 -0.75 0.0 0
M  V30 16 O 5.1961 -2.25 0.0 0
M  V30 17 C 3.8971 0.0 0.0 0 CFG=1
M  V30 18 C 3.8971 1.5 0.0 0
M  V30 19 C 2.598 -0.75 0.0 0
M  V30 20 C 5.1961 2.25 0.0 0
M  V30 21 C 2.598 2.25 0.0 0
M  V30 22 O 2.598 -2.25 0.0 0
M  V30 23 O 1.299 0.0 0.0 0
M  V30 24 C 5.1961 3.75 0.0 0
M  V30 25 C 2.598 3.75 0.0 0
M  V30 26 C 0.0 -0.75 0.0 0
M  V30 27 C 3.8971 4.5 0.0 0
M  V30 28 C 0.0 -2.25 0.0 0
M  V30 29 C -1.299 0.0 0.0 0
M  V30 30 C -1.299 -3.0 0.0 0
M  V30 31 C -2.598 -0.75 0.0 0
M  V30 32 C -2.598 -2.25 0.0 0
M  V30 33 C -1.6109 -4.4672 0.0 0
M  V30 34 C -3.7127 -3.2536 0.0 0
M  V30 35 C -3.1026 -4.624 0.0 0
M  V30 END ATOM
M  V30 BEGIN BOND
M  V30 1 1 1 2
M  V30 2 1 3 1 CFG=1
M  V30 3 1 4 2
M  V30 4 1 2 5
M  V30 5 1 2 6
M  V30 6 1 3 7
M  V30 7 1 8 3
M  V30 8 1 4 9 CFG=3
M  V30 9 1 7 10
M  V30 10 1 8 11 CFG=1
M  V30 11 2 9 12
M  V30 12 1 9 13
M  V30 13 2 10 14
M  V30 14 1 11 15
M  V30 15 2 15 16
M  V30 16 1 17 15 CFG=3
M  V30 17 1 17 18
M  V30 18 1 17 19
M  V30 19 2 18 20
M  V30 20 1 18 21
M  V30 21 2 19 22
M  V30 22 1 19 23
M  V30 23 1 20 24
M  V30 24 2 21 25
M  V30 25 1 23 26
M  V30 26 2 24 27
M  V30 27 2 26 28
M  V30 28 1 26 29
M  V30 29 1 28 30
M  V30 30 2 29 31
M  V30 31 2 30 32
M  V30 32 1 30 33
M  V30 33 1 32 34
M  V30 34 1 33 35
M  V30 35 1 4 7
M  V30 36 1 8 10
M  V30 37 1 25 27
M  V30 38 1 31 32
M  V30 39 1 34 35
M  V30 END BOND
M  V30 BEGIN COLLECTION
M  V30 MDLV30/STERAC1 ATOMS=(4 3 4 8 17)
M  V30 END COLLECTION
M  V30 END CTAB
M  END
>  <Molecule Name>


>  <status>
DISCONTINUED

>  <cas>
35531-88-5

>  <name>
CARBENICILLIN INDANYL

>  <ID>
1447

>  <Smiles>
CC(C)([C@H]1C([O-])=O)S[C@@H]([C@H]2NC([C@H](C(Oc3cc(CCC4)c4cc3)=O)c3ccccc3)=O)N1C2=O

$$$$

Actelion Java MolfileCreator 2.0

  0  0  0  0  0  0              0 V3000
M  V30 BEGIN CTAB
M  V30 COUNTS 35 39 0 0 0
M  V30 BEGIN ATOM
M  V30 1 S 8.1039 -3.6968 0.0 0
M  V30 2 C 9.5043 -4.2343 0.0 0
M  V30 3 C 8.1824 -2.1988 0.0 0 CFG=2
M  V30 4 C 10.4483 -3.0686 0.0 0 CFG=2
M  V30 5 C 9.116 -5.6832 0.0 0
M  V30 6 C 10.5649 -5.295 0.0 0
M  V30 7 N 9.6313 -1.8106 0.0 0
M  V30 8 C 7.7942 -0.75 0.0 0 CFG=2
M  V30 9 C 11.9462 -3.1471 0.0 0
M  V30 10 C 9.2431 -0.3617 0.0 0
M  V30 11 N 6.4951 0.0 0.0 0
M  V30 12 O 12.6272 -4.4836 0.0 0
M  V30 13 O 12.7632 -1.8891 0.0 0 CHG=-1
M  V30 14 O 9.9931 0.9372 0.0 0
M  V30 15 C 5.1961 -0.75 0.0 0
M  V30 16 O 5.1961 -2.25 0.0 0
M  V30 17 C 3.8971 0.0 0.0 0 CFG=2
M  V30 18 C 3.8971 1.5 0.0 0
M  V30 19 C 2.598 -0.75 0.0 0
M  V30 20 C 5.1961 2.25 0.0 0
M  V30 21 C 2.598 2.25 0.0 0
M  V30 22 O 2.598 -2.25 0.0 0
M  V30 23 O 1.299 0.0 0.0 0
M  V30 24 C 5.1961 3.75 0.0 0
M  V30 25 C 2.598 3.75 0.0 0
M  V30 26 C 0.0 -0.75 0.0 0
M  V30 27 C 3.8971 4.5 0.0 0
M  V30 28 C 0.0 -2.25 0.0 0
M  V30 29 C -1.299 0.0 0.0 0
M  V30 30 C -1.299 -3.0 0.0 0
M  V30 31 C -2.598 -0.75 0.0 0
M  V30 32 C -2.598 -2.25 0.0 0
M  V30 33 C -1.6109 -4.4672 0.0 0
M  V30 34 C -3.7127 -3.2536 0.0 0
M  V30 35 C -3.1026 -4.624 0.0 0
M  V30 END ATOM
M  V30 BEGIN BOND
M  V30 1 1 1 2
M  V30 2 1 3 1 CFG=1
M  V30 3 1 4 2
M  V30 4 1 2 5
M  V30 5 1 2 6
M  V30 6 1 3 7
M  V30 7 1 8 3
M  V30 8 1 4 9 CFG=3
M  V30 9 1 7 10
M  V30 10 1 8 11 CFG=1
M  V30 11 2 9 12
M  V30 12 1 9 13
M  V30 13 2 10 14
M  V30 14 1 11 15
M  V30 15 2 15 16
M  V30 16 1 17 15 CFG=1
M  V30 17 1 17 18
M  V30 18 1 17 19
M  V30 19 2 18 20
M  V30 20 1 18 21
M  V30 21 2 19 22
M  V30 22 1 19 23
M  V30 23 1 20 24
M  V30 24 2 21 25
M  V30 25 1 23 26
M  V30 26 2 24 27
M  V30 27 2 26 28
M  V30 28 1 26 29
M  V30 29 1 28 30
M  V30 30 2 29 31
M  V30 31 2 30 32
M  V30 32 1 30 33
M  V30 33 1 32 34
M  V30 34 1 33 35
M  V30 35 1 4 7
M  V30 36 1 8 10
M  V30 37 1 25 27
M  V30 38 1 31 32
M  V30 39 1 34 35
M  V30 END BOND
M  V30 BEGIN COLLECTION
M  V30 MDLV30/STERAC1 ATOMS=(4 3 4 8 17)
M  V30 END COLLECTION
M  V30 END CTAB
M  END
>  <Molecule Name>


>  <status>
DISCONTINUED

>  <cas>
35531-88-5

>  <name>
CARBENICILLIN INDANYL

>  <ID>
1448

>  <Smiles>
CC(C)([C@H]1C([O-])=O)S[C@@H]([C@H]2NC([C@@H](C(Oc3cc(CCC4)c4cc3)=O)c3ccccc3)=O)N1C2=O

$$$$
Molecule-1
Actelion Java MolfileCreator 2.0

  0  0  0  0  0  0              0 V3000
M  V30 BEGIN CTAB
M  V30 COUNTS 36 38 0 0 0
M  V30 BEGIN ATOM
M  V30 1 N 1.732 -0.5 0.0 0
M  V30 2 C 1.732 -1.5 0.0 0
M  V30 3 C 2.598 0.0 0.0 0
M  V30 4 C 0.866 0.0 0.0 0
M  V30 5 C 0.866 -1.9999 0.0 0
M  V30 6 C 2.598 1.0 0.0 0
M  V30 7 C 0.0 -0.5 0.0 0
M  V30 8 N -0.1761 -1.3859 0.0 0
M  V30 9 C 1.732 1.5 0.0 0
M  V30 10 C -0.8057 -0.1104 0.0 0
M  V30 11 C -0.0014 -1.6452 0.0 0
M  V30 12 C -0.8428 -2.0385 0.0 0
M  V30 13 N 0.866 1.0 0.0 0
M  V30 14 C -1.7393 -0.591 0.0 0
M  V30 15 C -0.9517 -1.9495 0.0 0
M  V30 16 C -1.8572 -1.2906 0.0 0
M  V30 17 C 0.0 1.5 0.0 0
M  V30 18 C -1.8117 -1.6173 0.0 0
M  V30 19 C -1.9151 -0.4435 0.0 0
M  V30 20 C -0.866 1.0 0.0 0
M  V30 21 C -2.598 -1.9999 0.0 0
M  V30 22 N -0.9588 0.2321 0.0 0
M  V30 23 N -2.598 -2.9999 0.0 0
M  V30 24 C -3.4641 -3.4999 0.0 0
M  V30 25 C -1.732 -3.4999 0.0 0
M  V30 26 C -4.3301 -2.9999 0.0 0
M  V30 27 C -0.866 -2.9999 0.0 0
M  V30 28 N -4.3301 -1.9999 0.0 0
M  V30 29 C -0.7744 -1.972 0.0 0
M  V30 30 C -5.1961 -1.4999 0.0 0
M  V30 31 N -1.5947 -1.3981 0.0 0
M  V30 32 C -5.1961 -0.4999 0.0 0
M  V30 33 C -1.7121 -0.4272 0.0 0
M  V30 34 C -4.3301 0.0 0.0 0
M  V30 35 C -2.598 0.0 0.0 0
M  V30 36 N -3.4641 -0.4999 0.0 0
M  V30 END ATOM
M  V30 BEGIN BOND
M  V30 1 1 1 2
M  V30 2 1 1 3
M  V30 3 1 1 4
M  V30 4 1 2 5
M  V30 5 1 3 6
M  V30 6 1 4 7
M  V30 7 1 5 8
M  V30 8 1 6 9
M  V30 9 2 7 10
M  V30 10 1 7 11
M  V30 11 1 8 12
M  V30 12 1 9 13
M  V30 13 1 10 14
M  V30 14 2 11 15
M  V30 15 1 12 16
M  V30 16 1 13 17
M  V30 17 2 14 18
M  V30 18 1 16 19
M  V30 19 1 17 20
M  V30 20 1 18 21
M  V30 21 1 19 22
M  V30 22 1 21 23
M  V30 23 1 23 24
M  V30 24 1 23 25
M  V30 25 1 24 26
M  V30 26 1 25 27
M  V30 27 1 26 28
M  V30 28 1 27 29
M  V30 29 1 28 30
M  V30 30 1 29 31
M  V30 31 1 30 32
M  V30 32 1 31 33
M  V30 33 1 32 34
M  V30 34 1 33 35
M  V30 35 1 34 36
M  V30 36 1 15 18
M  V30 37 1 20 22
M  V30 38 1 35 36
M  V30 END BOND
M  V30 END CTAB
M  END
>  <Molecule Name>
Molecule-1

>  <status>
-

>  <cas>
110078-46-1

>  <name>
PLERIXAFOR

>  <ID>
1449

>  <Smiles>
C(c1ccc(CN2CCNCCCNCCNCCC2)cc1)N1CCNCCCNCCNCCC1

$$$$
Molecule-1
Actelion Java MolfileCreator 2.0

  0  0  0  0  0  0              0 V3000
M  V30 BEGIN CTAB
M  V30 COUNTS 33 36 0 0 0
M  V30 BEGIN ATOM
M  V30 1 O 1.9594 1.6636 0.0 0
M  V30 2 C 2.7026 0.9945 0.0 0
M  V30 3 N 3.6807 1.2024 0.0 0
M  V30 4 C 2.598 0.0 0.0 0
M  V30 5 N 4.1807 0.3364 0.0 0
M  V30 6 C 4.0874 2.1159 0.0 0
M  V30 7 N 1.732 -0.5 0.0 0
M  V30 8 C 3.5116 -0.4067 0.0 0
M  V30 9 C 3.4997 2.9249 0.0 0
M  V30 10 C 5.082 2.2205 0.0 0
M  V30 11 N 0.866 0.0 0.0 0
M  V30 12 C 3.7195 -1.3848 0.0 0
M  V30 13 C 3.9064 3.8385 0.0 0
M  V30 14 C 5.4887 3.134 0.0 0
M  V30 15 C 0.0 -0.5 0.0 0
M  V30 16 C 4.9009 3.943 0.0 0
M  V30 17 C 3.3186 4.6475 0.0 0
M  V30 18 C -0.866 0.0 0.0 0
M  V30 19 C 0.0 -1.4999 0.0 0
M  V30 20 C 5.3076 4.8566 0.0 0
M  V30 21 O -0.866 1.0 0.0 0
M  V30 22 C -1.732 -0.4999 0.0 0
M  V30 23 C -0.866 -1.9999 0.0 0
M  V30 24 C -2.598 0.0 0.0 0
M  V30 25 C -1.732 -1.4999 0.0 0
M  V30 26 C -2.598 1.0 0.0 0
M  V30 27 C -3.4641 -0.4999 0.0 0
M  V30 28 C -3.4641 1.5 0.0 0
M  V30 29 C -4.3301 0.0 0.0 0
M  V30 30 C -3.4641 2.5 0.0 0
M  V30 31 C -4.3301 1.0 0.0 0
M  V30 32 O -2.598 3.0 0.0 0
M  V30 33 O -4.3301 3.0 0.0 0 CHG=-1
M  V30 END ATOM
M  V30 BEGIN BOND
M  V30 1 2 1 2
M  V30 2 1 2 3
M  V30 3 1 2 4
M  V30 4 1 3 5
M  V30 5 1 3 6
M  V30 6 2 4 7
M  V30 7 1 4 8
M  V30 8 2 6 9
M  V30 9 1 6 10
M  V30 10 1 7 11
M  V30 11 1 8 12
M  V30 12 1 9 13
M  V30 13 2 10 14
M  V30 14 1 11 15
M  V30 15 2 13 16
M  V30 16 1 13 17
M  V30 17 2 15 18
M  V30 18 1 15 19
M  V30 19 1 16 20
M  V30 20 1 18 21
M  V30 21 1 18 22
M  V30 22 2 19 23
M  V30 23 1 22 24
M  V30 24 2 22 25
M  V30 25 2 24 26
M  V30 26 1 24 27
M  V30 27 1 26 28
M  V30 28 2 27 29
M  V30 29 1 28 30
M  V30 30 2 28 31
M  V30 31 2 30 32
M  V30 32 1 30 33
M  V30 33 2 5 8
M  V30 34 1 14 16
M  V30 35 1 23 25
M  V30 36 1 29 31
M  V30 END BOND
M  V30 END CTAB
M  END
>  <Molecule Name>
Molecule-1

>  <status>
-

>  <cas>
496775-61-2

>  <name>
ELTROMBOPAG

>  <ID>
1450

>  <Smiles>
CC(/C(/C1=O)=N/Nc(cccc2-c3cc(C([O-])=O)ccc3)c2O)=NN1c1cc(C)c(C)cc1

$$$$
DEGARELIX_c001
Actelion Java MolfileCreator 2.0

  0  0  0  0  0  0              0 V3000
M  V30 BEGIN CTAB
M  V30 COUNTS 117 124 0 0 0
M  V30 BEGIN ATOM
M  V30 1 Cl 18.1865 3.0 0.0 0
M  V30 2 C 19.0525 2.5 0.0 0
M  V30 3 C 19.9185 3.0 0.0 0
M  V30 4 C 19.0525 1.5 0.0 0
M  V30 5 C 20.7846 2.5 0.0 0
M  V30 6 C 19.9185 0.9999 0.0 0
M  V30 7 C 20.7846 1.5 0.0 0
M  V30 8 C 21.6506 0.9999 0.0 0
M  V30 9 C 21.6506 0.0 0.0 0 CFG=2
M  V30 10 N 22.5166 -0.5 0.0 0
M  V30 11 C 20.7846 -0.5 0.0 0
M  V30 12 C 23.3826 0.0 0.0 0
M  V30 13 O 20.7846 -1.4999 0.0 0
M  V30 14 N 19.9185 0.0 0.0 0
M  V30 15 O 23.3826 0.9999 0.0 0
M  V30 16 C 24.2487 -0.5 0.0 0 CFG=2
M  V30 17 C 19.0525 -0.5 0.0 0 CFG=1
M  V30 18 N 25.1147 0.0 0.0 0
M  V30 19 C 24.2487 -1.5 0.0 0
M  V30 20 C 18.1865 0.0 0.0 0
M  V30 21 C 19.0525 -1.5 0.0 0
M  V30 22 C 25.1147 0.9999 0.0 0
M  V30 23 C 25.1147 -2.0 0.0 0
M  V30 24 O 18.1865 0.9999 0.0 0
M  V30 25 N 17.3205 -0.5 0.0 0
M  V30 26 C 18.1865 -2.0 0.0 0
M  V30 27 O 25.9807 1.5 0.0 0
M  V30 28 C 24.2487 1.4999 0.0 0
M  V30 29 C 25.9807 -1.5 0.0 0
M  V30 30 C 25.1147 -3.0 0.0 0
M  V30 31 C 16.4544 0.0 0.0 0 CFG=2
M  V30 32 C 18.1865 -3.0 0.0 0
M  V30 33 C 17.3205 -1.5 0.0 0
M  V30 34 C 26.8467 -2.0 0.0 0
M  V30 35 C 25.9807 -3.5 0.0 0
M  V30 36 C 15.5884 -0.5 0.0 0
M  V30 37 C 16.4544 0.9999 0.0 0
M  V30 38 N 17.3205 -3.5 0.0 0
M  V30 39 C 16.4544 -2.0 0.0 0
M  V30 40 C 26.8467 -3.0 0.0 0
M  V30 41 C 27.7128 -1.4999 0.0 0
M  V30 42 O 15.5884 -1.5 0.0 0
M  V30 43 N 14.7224 0.0 0.0 0
M  V30 44 O 15.5884 1.5 0.0 0
M  V30 45 C 16.4544 -3.0 0.0 0
M  V30 46 C 27.7128 -3.5 0.0 0
M  V30 47 C 28.5788 -2.0 0.0 0
M  V30 48 C 13.8564 -0.5 0.0 0 CFG=1
M  V30 49 C 28.5788 -2.9999 0.0 0
M  V30 50 C 12.9903 0.0 0.0 0
M  V30 51 C 13.8564 -1.4999 0.0 0
M  V30 52 O 12.9903 1.0 0.0 0
M  V30 53 N 12.1243 -0.5 0.0 0
M  V30 54 C 12.9903 -1.9999 0.0 0
M  V30 55 C 11.2583 0.0 0.0 0 CFG=1
M  V30 56 C 12.9903 -2.9999 0.0 0
M  V30 57 C 12.1243 -1.4999 0.0 0
M  V30 58 C 10.3923 -0.5 0.0 0
M  V30 59 C 11.2583 0.9999 0.0 0
M  V30 60 C 12.1243 -3.5 0.0 0
M  V30 61 C 11.2583 -1.9999 0.0 0
M  V30 62 O 10.3923 -1.5 0.0 0
M  V30 63 N 9.5262 0.0 0.0 0
M  V30 64 C 10.3923 1.4999 0.0 0
M  V30 65 C 11.2583 -2.9999 0.0 0
M  V30 66 C 8.6602 -0.5 0.0 0 CFG=1
M  V30 67 C 10.3923 2.4999 0.0 0
M  V30 68 C 9.5262 0.9999 0.0 0
M  V30 69 N 10.3923 -3.4999 0.0 0
M  V30 70 C 7.7942 0.0 0.0 0
M  V30 71 C 8.6602 -1.4999 0.0 0
M  V30 72 C 9.5262 2.9999 0.0 0
M  V30 73 C 8.6602 1.4999 0.0 0
M  V30 74 C 10.3923 -4.4999 0.0 0
M  V30 75 O 6.9282 -0.5 0.0 0
M  V30 76 N 7.7942 0.9999 0.0 0
M  V30 77 C 7.7942 -1.9999 0.0 0
M  V30 78 C 8.6602 2.4999 0.0 0
M  V30 79 O 11.2583 -4.9999 0.0 0
M  V30 80 C 9.5262 -4.9999 0.0 0 CFG=1
M  V30 81 C 6.9282 1.4999 0.0 0 CFG=2
M  V30 82 C 6.9282 -1.4999 0.0 0
M  V30 83 C 7.7942 -3.0 0.0 0
M  V30 84 N 7.7942 2.9999 0.0 0
M  V30 85 N 9.5262 -5.9999 0.0 0
M  V30 86 C 8.6602 -4.5 0.0 0
M  V30 87 C 6.0621 0.9999 0.0 0
M  V30 88 C 6.9282 2.4999 0.0 0
M  V30 89 C 7.7942 3.9999 0.0 0
M  V30 90 C 8.6602 -6.5 0.0 0
M  V30 91 C 7.7942 -5.0 0.0 0
M  V30 92 O 6.0621 0.0 0.0 0
M  V30 93 N 5.1961 1.4999 0.0 0
M  V30 94 C 6.0621 2.9999 0.0 0
M  V30 95 O 8.6602 4.4999 0.0 0
M  V30 96 N 6.9282 4.4999 0.0 0
M  V30 97 O 8.6602 -7.5 0.0 0
M  V30 98 N 7.7942 -6.0 0.0 0
M  V30 99 O 6.9282 -4.5 0.0 0
M  V30 100 C 4.2826 1.0932 0.0 0 CFG=2
M  V30 101 C 5.0916 2.4945 0.0 0
M  V30 102 C 6.0621 3.9999 0.0 0
M  V30 103 C 4.0746 0.1151 0.0 0
M  V30 104 C 3.6134 1.8364 0.0 0
M  V30 105 C 4.1134 2.7024 0.0 0
M  V30 106 C 5.1961 4.4999 0.0 0
M  V30 107 O 4.8178 -0.554 0.0 0
M  V30 108 N 3.1236 -0.1939 0.0 0
M  V30 109 N 5.1961 5.4999 0.0 0
M  V30 110 C 2.9157 -1.172 0.0 0 CFG=1
M  V30 111 C 4.3301 5.9999 0.0 0
M  V30 112 C 1.9646 -1.481 0.0 0
M  V30 113 C 3.6588 -1.8411 0.0 0
M  V30 114 C 3.4641 5.4999 0.0 0
M  V30 115 C 4.3301 6.9999 0.0 0
M  V30 116 O 1.2215 -0.8119 0.0 0
M  V30 117 N 1.7567 -2.4592 0.0 0
M  V30 END ATOM
M  V30 BEGIN BOND
M  V30 1 1 1 2
M  V30 2 2 2 3
M  V30 3 1 2 4
M  V30 4 1 3 5
M  V30 5 2 4 6
M  V30 6 2 5 7
M  V30 7 1 7 8
M  V30 8 1 9 8
M  V30 9 1 9 10 CFG=3
M  V30 10 1 9 11
M  V30 11 1 10 12
M  V30 12 2 11 13
M  V30 13 1 11 14
M  V30 14 2 12 15
M  V30 15 1 16 12
M  V30 16 1 17 14 CFG=3
M  V30 17 1 16 18 CFG=3
M  V30 18 1 16 19
M  V30 19 1 17 20
M  V30 20 1 17 21
M  V30 21 1 18 22
M  V30 22 1 19 23
M  V30 23 2 20 24
M  V30 24 1 20 25
M  V30 25 1 21 26
M  V30 26 2 22 27
M  V30 27 1 22 28
M  V30 28 2 23 29
M  V30 29 1 23 30
M  V30 30 1 31 25 CFG=3
M  V30 31 2 26 32
M  V30 32 1 26 33
M  V30 33 1 29 34
M  V30 34 2 30 35
M  V30 35 1 31 36
M  V30 36 1 31 37
M  V30 37 1 32 38
M  V30 38 2 33 39
M  V30 39 1 34 40
M  V30 40 2 34 41
M  V30 41 2 36 42
M  V30 42 1 36 43
M  V30 43 1 37 44
M  V30 44 2 38 45
M  V30 45 2 40 46
M  V30 46 1 41 47
M  V30 47 1 48 43 CFG=3
M  V30 48 1 46 49
M  V30 49 1 48 50
M  V30 50 1 48 51
M  V30 51 2 50 52
M  V30 52 1 50 53
M  V30 53 1 51 54
M  V30 54 1 55 53 CFG=1
M  V30 55 2 54 56
M  V30 56 1 54 57
M  V30 57 1 55 58
M  V30 58 1 55 59
M  V30 59 1 56 60
M  V30 60 2 57 61
M  V30 61 2 58 62
M  V30 62 1 58 63
M  V30 63 1 59 64
M  V30 64 2 60 65
M  V30 65 1 66 63 CFG=3
M  V30 66 2 64 67
M  V30 67 1 64 68
M  V30 68 1 65 69
M  V30 69 1 66 70
M  V30 70 1 66 71
M  V30 71 1 67 72
M  V30 72 2 68 73
M  V30 73 1 69 74
M  V30 74 2 70 75
M  V30 75 1 70 76
M  V30 76 1 71 77
M  V30 77 2 72 78
M  V30 78 2 74 79
M  V30 79 1 80 74 CFG=1
M  V30 80 1 81 76 CFG=3
M  V30 81 1 77 82
M  V30 82 1 77 83
M  V30 83 1 78 84
M  V30 84 1 80 85
M  V30 85 1 80 86
M  V30 86 1 81 87
M  V30 87 1 81 88
M  V30 88 1 84 89
M  V30 89 1 85 90
M  V30 90 1 86 91
M  V30 91 2 87 92
M  V30 92 1 87 93
M  V30 93 1 88 94
M  V30 94 2 89 95
M  V30 95 1 89 96
M  V30 96 2 90 97
M  V30 97 1 90 98
M  V30 98 2 91 99
M  V30 99 1 100 93
M  V30 100 1 93 101
M  V30 101 1 94 102
M  V30 102 1 100 103 CFG=3
M  V30 103 1 100 104
M  V30 104 1 101 105
M  V30 105 1 102 106
M  V30 106 2 103 107
M  V30 107 1 103 108
M  V30 108 1 106 109
M  V30 109 1 110 108 CFG=3
M  V30 110 1 109 111
M  V30 111 1 110 112
M  V30 112 1 110 113
M  V30 113 1 111 114
M  V30 114 1 111 115
M  V30 115 2 112 116
M  V30 116 1 112 117
M  V30 117 1 6 7
M  V30 118 1 35 40
M  V30 119 1 39 45
M  V30 120 2 47 49
M  V30 121 1 61 65
M  V30 122 1 73 78
M  V30 123 1 91 98
M  V30 124 1 104 105
M  V30 END BOND
M  V30 BEGIN COLLECTION
M  V30 MDLV30/STERAC1 ATOMS=(11 9 16 17 31 48 55 66 80 81 100 110)
M  V30 END COLLECTION
M  V30 END CTAB
M  END
>  <Molecule Name>
DEGARELIX_c001

>  <status>
-

>  <cas>
214766-78-6

>  <name>
DEGARELIX

>  <ID>
1451

>  <Smiles>
CC(C)C[C@H](C(N[C@@H](CCCCNC(C)C)C(N(CCC1)[C@@H]1C(N[C@H](C)C(N)=O)=O)=O)=O)NC([C@@H](Cc(cc1)ccc1NC(N)=O)NC([C@@H](Cc(cc1)ccc1NC([C@H](CC(N1)=O)NC1=O)=O)NC([C@H](CO)NC([C@@H](Cc1cnccc1)NC([C@H](Cc(cc1)ccc1Cl)NC([C@@H](Cc1cc2ccccc2cc1)NC(C)=O)=O)=O)=O)=O)=O)=O

$$$$

Actelion Java MolfileCreator 2.0

  0  0  0  0  0  0              0 V3000
M  V30 BEGIN CTAB
M  V30 COUNTS 30 31 0 0 0
M  V30 BEGIN ATOM
M  V30 1 O 7.7942 1.0 0.0 0
M  V30 2 C 6.9282 1.5 0.0 0
M  V30 3 O 6.0621 1.0 0.0 0
M  V30 4 C 6.9282 2.5 0.0 0
M  V30 5 C 6.0621 0.0 0.0 0
M  V30 6 C 6.0621 3.0 0.0 0
M  V30 7 C 7.7942 3.0 0.0 0
M  V30 8 C 5.1961 -0.5 0.0 0
M  V30 9 C 6.9282 -0.4999 0.0 0
M  V30 10 C 5.1961 -1.4999 0.0 0
M  V30 11 C 4.3301 0.0 0.0 0 CFG=2
M  V30 12 C 6.9282 -1.4999 0.0 0
M  V30 13 C 6.0621 -1.9999 0.0 0
M  V30 14 C 4.3301 1.0 0.0 0
M  V30 15 C 3.4641 -0.5 0.0 0
M  V30 16 C 6.0621 -3.0 0.0 0
M  V30 17 C 5.1961 1.4999 0.0 0
M  V30 18 C 3.4641 1.5 0.0 0
M  V30 19 C 2.598 0.0 0.0 0
M  V30 20 O 6.9282 -3.5 0.0 0
M  V30 21 C 5.1961 2.4999 0.0 0
M  V30 22 C 3.4641 2.5 0.0 0
M  V30 23 N 1.732 -0.5 0.0 0
M  V30 24 C 4.3301 2.9999 0.0 0
M  V30 25 C 1.732 -1.5 0.0 0
M  V30 26 C 0.866 0.0 0.0 0
M  V30 27 C 0.866 -2.0 0.0 0
M  V30 28 C 2.598 -1.9999 0.0 0
M  V30 29 C 0.866 1.0 0.0 0
M  V30 30 C 0.0 -0.5 0.0 0
M  V30 END ATOM
M  V30 BEGIN BOND
M  V30 1 2 1 2
M  V30 2 1 2 3
M  V30 3 1 2 4
M  V30 4 1 3 5
M  V30 5 1 4 6
M  V30 6 1 4 7
M  V30 7 2 5 8
M  V30 8 1 5 9
M  V30 9 1 8 10
M  V30 10 1 11 8
M  V30 11 2 9 12
M  V30 12 2 10 13
M  V30 13 1 11 14
M  V30 14 1 11 15 CFG=1
M  V30 15 1 13 16
M  V30 16 2 14 17
M  V30 17 1 14 18
M  V30 18 1 15 19
M  V30 19 1 16 20
M  V30 20 1 17 21
M  V30 21 2 18 22
M  V30 22 1 19 23
M  V30 23 2 21 24
M  V30 24 1 23 25
M  V30 25 1 23 26
M  V30 26 1 25 27
M  V30 27 1 25 28
M  V30 28 1 26 29
M  V30 29 1 26 30
M  V30 30 1 12 13
M  V30 31 1 22 24
M  V30 END BOND
M  V30 BEGIN COLLECTION
M  V30 MDLV30/STERAC1 ATOMS=(1 11)
M  V30 END COLLECTION
M  V30 END CTAB
M  END
>  <Molecule Name>


>  <status>
-

>  <cas>
286930-02-7

>  <name>
FESOTERODINE

>  <ID>
1452

>  <Smiles>
CC(C)C(Oc1c(C(CCN(C(C)C)C(C)C)c2ccccc2)cc(CO)cc1)=O

$$$$
Molecule-1
Actelion Java MolfileCreator 2.0

  0  0  0  0  0  0              0 V3000
M  V30 BEGIN CTAB
M  V30 COUNTS 17 18 0 0 0
M  V30 BEGIN ATOM
M  V30 1 F 2.598 1.0 0.0 0
M  V30 2 C 2.598 0.0 0.0 0
M  V30 3 C 1.732 -0.5 0.0 0
M  V30 4 C 3.4641 -0.4999 0.0 0
M  V30 5 C 1.732 -1.5 0.0 0
M  V30 6 C 0.866 0.0 0.0 0
M  V30 7 C 3.4641 -1.4999 0.0 0
M  V30 8 F 0.866 -2.0 0.0 0
M  V30 9 C 2.598 -1.9999 0.0 0
M  V30 10 N 0.0 -0.5 0.0 0
M  V30 11 N -0.9135 -0.0932 0.0 0
M  V30 12 C -0.1045 -1.4945 0.0 0
M  V30 13 N -1.5826 -0.8364 0.0 0
M  V30 14 C -1.0826 -1.7024 0.0 0
M  V30 15 C -1.4894 -2.6159 0.0 0
M  V30 16 O -2.4839 -2.7205 0.0 0
M  V30 17 N -0.9016 -3.4249 0.0 0
M  V30 END ATOM
M  V30 BEGIN BOND
M  V30 1 1 1 2
M  V30 2 2 2 3
M  V30 3 1 2 4
M  V30 4 1 3 5
M  V30 5 1 3 6
M  V30 6 2 4 7
M  V30 7 1 5 8
M  V30 8 2 5 9
M  V30 9 1 6 10
M  V30 10 1 10 11
M  V30 11 1 10 12
M  V30 12 2 11 13
M  V30 13 2 12 14
M  V30 14 1 14 15
M  V30 15 2 15 16
M  V30 16 1 15 17
M  V30 17 1 7 9
M  V30 18 1 13 14
M  V30 END BOND
M  V30 END CTAB
M  END
>  <Molecule Name>
Molecule-1

>  <status>
-

>  <cas>
106308-44-5

>  <name>
RUFINAMIDE

>  <ID>
1453

>  <Smiles>
NC(c1cn(Cc(c(F)ccc2)c2F)nn1)=O

$$$$
Molecule-1
Actelion Java MolfileCreator 2.0

  0  0  0  0  0  0              0 V3000
M  V30 BEGIN CTAB
M  V30 COUNTS 19 19 0 0 0
M  V30 BEGIN ATOM
M  V30 1 P 3.4641 -0.5 0.0 0
M  V30 2 O 2.9641 -1.366 0.0 0
M  V30 3 O 2.598 0.0 0.0 0
M  V30 4 O 4.3301 -0.9999 0.0 0 CHG=-1
M  V30 5 O 3.9641 0.366 0.0 0 CHG=-1
M  V30 6 C 1.732 -0.5 0.0 0
M  V30 7 O 0.866 0.0 0.0 0
M  V30 8 C 0.0 -0.5 0.0 0
M  V30 9 C -0.866 0.0 0.0 0
M  V30 10 C 0.0 -1.4999 0.0 0
M  V30 11 C -1.732 -0.4999 0.0 0
M  V30 12 C -0.866 1.0 0.0 0
M  V30 13 C -0.866 -1.9999 0.0 0
M  V30 14 C 0.866 -2.0 0.0 0
M  V30 15 C -1.732 -1.4999 0.0 0
M  V30 16 C 0.0 1.5 0.0 0
M  V30 17 C -1.732 1.5 0.0 0
M  V30 18 C 0.866 -3.0 0.0 0
M  V30 19 C 1.732 -1.5 0.0 0
M  V30 END ATOM
M  V30 BEGIN BOND
M  V30 1 2 1 2
M  V30 2 1 1 3
M  V30 3 1 1 4
M  V30 4 1 1 5
M  V30 5 1 3 6
M  V30 6 1 6 7
M  V30 7 1 7 8
M  V30 8 2 8 9
M  V30 9 1 8 10
M  V30 10 1 9 11
M  V30 11 1 9 12
M  V30 12 2 10 13
M  V30 13 1 10 14
M  V30 14 2 11 15
M  V30 15 1 12 16
M  V30 16 1 12 17
M  V30 17 1 14 18
M  V30 18 1 14 19
M  V30 19 1 13 15
M  V30 END BOND
M  V30 END CTAB
M  END
>  <Molecule Name>
Molecule-1

>  <status>
DISCONTINUED

>  <cas>
258516-89-1

>  <name>
FOSPROPOFOL

>  <ID>
1454

>  <Smiles>
CC(C)c1cccc(C(C)C)c1OCOP([O-])([O-])=O

$$$$

Actelion Java MolfileCreator 2.0

  0  0  0  0  0  0              0 V3000
M  V30 BEGIN CTAB
M  V30 COUNTS 18 18 0 0 0
M  V30 BEGIN ATOM
M  V30 1 O 3.4641 -1.5 0.0 0
M  V30 2 C 3.4641 -0.5 0.0 0
M  V30 3 N 4.3301 0.0 0.0 0
M  V30 4 C 2.598 0.0 0.0 0 CFG=1
M  V30 5 C 5.1961 -0.5 0.0 0
M  V30 6 N 2.598 0.9999 0.0 0
M  V30 7 C 1.732 -0.5 0.0 0
M  V30 8 C 6.0621 0.0 0.0 0
M  V30 9 C 3.4641 1.4999 0.0 0
M  V30 10 O 0.866 0.0 0.0 0
M  V30 11 C 6.9282 -0.5 0.0 0
M  V30 12 C 6.0621 0.9999 0.0 0
M  V30 13 O 4.3301 0.9999 0.0 0
M  V30 14 C 3.4641 2.4999 0.0 0
M  V30 15 C 0.0 -0.5 0.0 0
M  V30 16 C 7.7942 0.0 0.0 0
M  V30 17 C 6.9282 1.4999 0.0 0
M  V30 18 C 7.7942 0.9999 0.0 0
M  V30 END ATOM
M  V30 BEGIN BOND
M  V30 1 2 1 2
M  V30 2 1 2 3
M  V30 3 1 4 2
M  V30 4 1 3 5
M  V30 5 1 4 6 CFG=3
M  V30 6 1 4 7
M  V30 7 1 5 8
M  V30 8 1 6 9
M  V30 9 1 7 10
M  V30 10 2 8 11
M  V30 11 1 8 12
M  V30 12 2 9 13
M  V30 13 1 9 14
M  V30 14 1 10 15
M  V30 15 1 11 16
M  V30 16 2 12 17
M  V30 17 2 16 18
M  V30 18 1 17 18
M  V30 END BOND
M  V30 BEGIN COLLECTION
M  V30 MDLV30/STERAC1 ATOMS=(1 4)
M  V30 END COLLECTION
M  V30 END CTAB
M  END
>  <Molecule Name>


>  <status>
-

>  <cas>
175481-36-4

>  <name>
LACOSAMIDE

>  <ID>
1455

>  <Smiles>
CC(NC(COC)C(NCc1ccccc1)=O)=O

$$$$

Actelion Java MolfileCreator 2.0

  0  0  0  0  0  0              0 V3000
M  V30 BEGIN CTAB
M  V30 COUNTS 10 11 0 0 0
M  V30 BEGIN ATOM
M  V30 1 O 0.7058 2.7908 0.0 0
M  V30 2 C 1.4558 1.4917 0.0 0 CFG=2
M  V30 3 C 1.7095 3.9055 0.0 0
M  V30 4 C 2.923 1.8036 0.0 0 CFG=2
M  V30 5 C 1.299 0.0 0.0 0 CFG=1
M  V30 6 C 3.0798 3.2954 0.0 0 CFG=2
M  V30 7 O 3.673 0.5046 0.0 0
M  V30 8 O 0.0 -0.75 0.0 0
M  V30 9 C 2.6693 -0.6101 0.0 0
M  V30 10 O 4.3788 4.0454 0.0 0
M  V30 END ATOM
M  V30 BEGIN BOND
M  V30 1 1 2 1 CFG=3
M  V30 2 1 1 3
M  V30 3 1 4 2
M  V30 4 1 5 2
M  V30 5 1 6 3
M  V30 6 1 4 7 CFG=3
M  V30 7 1 5 8 CFG=3
M  V30 8 1 5 9
M  V30 9 1 6 10 CFG=1
M  V30 10 1 4 6
M  V30 11 1 7 9
M  V30 END BOND
M  V30 BEGIN COLLECTION
M  V30 MDLV30/STERAC1 ATOMS=(4 2 4 5 6)
M  V30 END COLLECTION
M  V30 END CTAB
M  END
>  <Molecule Name>


>  <status>
DISCONTINUED

>  <cas>
652-67-5

>  <name>
ISOSORBIDE

>  <ID>
1456

>  <Smiles>
O[C@H](CO[C@H]12)[C@@H]1OC[C@@H]2O

$$$$

Actelion Java MolfileCreator 2.0

  0  0  0  0  0  0              0 V3000
M  V30 BEGIN CTAB
M  V30 COUNTS 32 35 0 0 0
M  V30 BEGIN ATOM
M  V30 1 P 5.203 -0.7509 0.0 0
M  V30 2 O 4.452 -2.0517 0.0 0
M  V30 3 O 3.9022 0.0 0.0 0
M  V30 4 O 6.5037 -1.5019 0.0 0 CHG=-1
M  V30 5 O 5.954 0.5497 0.0 0 CHG=-1
M  V30 6 C 2.6015 -0.7509 0.0 0
M  V30 7 C 1.3007 0.0 0.0 0
M  V30 8 O 1.3007 1.5019 0.0 0
M  V30 9 C 0.0 -0.7509 0.0 0 CFG=2
M  V30 10 O 1.2596 -1.569 0.0 0
M  V30 11 C -1.3721 -0.14 0.0 0 CFG=2
M  V30 12 C -0.1569 -2.2447 0.0 0 CFG=2
M  V30 13 C -2.3771 -1.2562 0.0 0 CFG=1
M  V30 14 C -1.8362 1.2883 0.0 0
M  V30 15 C -0.2559 0.8649 0.0 0
M  V30 16 C -1.6261 -2.557 0.0 0
M  V30 17 C 0.9591 -3.2497 0.0 0
M  V30 18 C -3.8463 -0.9439 0.0 0 CFG=1
M  V30 19 C -3.3054 1.6006 0.0 0 CFG=1
M  V30 20 C -4.3104 0.4844 0.0 0 CFG=1
M  V30 21 C -4.8513 -2.0601 0.0 0
M  V30 22 O -3.7695 3.0291 0.0 0
M  V30 23 F -4.6019 1.8205 0.0 0
M  V30 24 C -5.7796 0.7967 0.0 0 CFG=2
M  V30 25 C -6.3204 -1.7478 0.0 0
M  V30 26 C -6.7846 -0.3194 0.0 0
M  V30 27 C -6.2437 2.2252 0.0 0
M  V30 28 C -5.04 2.1784 0.0 0
M  V30 29 C -8.2537 -0.0071 0.0 0
M  V30 30 C -7.7128 2.5375 0.0 0
M  V30 31 C -8.7179 1.4213 0.0 0
M  V30 32 O -10.187 1.7335 0.0 0
M  V30 END ATOM
M  V30 BEGIN BOND
M  V30 1 2 1 2
M  V30 2 1 1 3
M  V30 3 1 1 4
M  V30 4 1 1 5
M  V30 5 1 3 6
M  V30 6 1 6 7
M  V30 7 2 7 8
M  V30 8 1 9 7
M  V30 9 1 9 10 CFG=3
M  V30 10 1 11 9
M  V30 11 1 12 9
M  V30 12 1 13 11
M  V30 13 1 11 14
M  V30 14 1 11 15 CFG=1
M  V30 15 1 12 16
M  V30 16 1 12 17 CFG=1
M  V30 17 1 18 13
M  V30 18 1 19 14
M  V30 19 1 20 18
M  V30 20 1 18 21 CFG=3
M  V30 21 1 19 22 CFG=1
M  V30 22 1 20 23 CFG=3
M  V30 23 1 24 20
M  V30 24 1 21 25
M  V30 25 1 24 26
M  V30 26 1 24 27
M  V30 27 1 24 28 CFG=1
M  V30 28 2 26 29
M  V30 29 2 27 30
M  V30 30 1 29 31
M  V30 31 2 31 32
M  V30 32 1 13 16 CFG=1
M  V30 33 1 19 20
M  V30 34 1 25 26
M  V30 35 1 30 31
M  V30 END BOND
M  V30 BEGIN COLLECTION
M  V30 MDLV30/STERAC1 ATOMS=(8 9 11 12 13 18 19 20 24)
M  V30 END COLLECTION
M  V30 END CTAB
M  END
>  <Molecule Name>


>  <status>
-

>  <cas>
360-63-4

>  <name>
BETAMETHASONE PHOSPHATE

>  <ID>
1457

>  <Smiles>
C[C@@H](C[C@@H]([C@H](CCC([C@]1(C)C=C2)=CC2=O)[C@@]11F)[C@]2(C)C[C@@H]1O)[C@@]2(C(COP([O-])([O-])=O)=O)O

$$$$

Actelion Java MolfileCreator 2.0

  0  0  0  0  0  0              0 V3000
M  V30 BEGIN CTAB
M  V30 COUNTS 8 8 0 0 0
M  V30 BEGIN ATOM
M  V30 1 O 2.598 -0.75 0.0 0
M  V30 2 C 1.299 0.0 0.0 0
M  V30 3 C 0.0 -0.75 0.0 0
M  V30 4 C -1.299 0.0 0.0 0
M  V30 5 C 0.0 -2.25 0.0 0
M  V30 6 C -2.598 -0.7499 0.0 0
M  V30 7 C -1.299 -2.9999 0.0 0
M  V30 8 C -2.598 -2.2499 0.0 0
M  V30 END ATOM
M  V30 BEGIN BOND
M  V30 1 1 1 2
M  V30 2 1 2 3
M  V30 3 2 3 4
M  V30 4 1 3 5
M  V30 5 1 4 6
M  V30 6 2 5 7
M  V30 7 2 6 8
M  V30 8 1 7 8
M  V30 END BOND
M  V30 END CTAB
M  END
>  <Molecule Name>


>  <status>
DISCONTINUED

>  <cas>
100-51-6

>  <name>
BENZYL ALCOHOL

>  <ID>
1458

>  <Smiles>
OCc1ccccc1

$$$$

Actelion Java MolfileCreator 2.0

  0  0  0  0  0  0              0 V3000
M  V30 BEGIN CTAB
M  V30 COUNTS 31 34 0 0 0
M  V30 BEGIN ATOM
M  V30 1 S 6.1667 0.0054 0.0 0
M  V30 2 C 7.1448 -0.2024 0.0 0
M  V30 3 C 6.0621 1.0 0.0 0 CFG=1
M  V30 4 O 7.5515 -1.1159 0.0 0
M  V30 5 N 7.6448 0.6635 0.0 0
M  V30 6 C 6.9757 1.4067 0.0 0
M  V30 7 C 5.1961 1.5 0.0 0
M  V30 8 O 7.1836 2.3848 0.0 0
M  V30 9 C 4.3301 1.0 0.0 0
M  V30 10 C 3.4641 1.5 0.0 0
M  V30 11 C 4.3301 0.0 0.0 0
M  V30 12 C 2.598 0.9999 0.0 0
M  V30 13 C 3.4641 -0.4999 0.0 0
M  V30 14 C 2.598 0.0 0.0 0
M  V30 15 O 1.732 -0.5 0.0 0
M  V30 16 C 0.866 0.0 0.0 0
M  V30 17 C 0.0 -0.5 0.0 0 CFG=2
M  V30 18 O -0.866 0.0 0.0 0
M  V30 19 C 0.0 -1.4999 0.0 0
M  V30 20 C 0.866 -1.0 0.0 0
M  V30 21 C -1.732 -0.4999 0.0 0
M  V30 22 C -0.866 -1.9999 0.0 0
M  V30 23 C -1.732 -1.4999 0.0 0
M  V30 24 C -2.598 0.0 0.0 0
M  V30 25 C -2.598 -1.9999 0.0 0
M  V30 26 C -3.4641 -0.4999 0.0 0
M  V30 27 C -2.598 1.0 0.0 0
M  V30 28 C -3.4641 -1.4999 0.0 0
M  V30 29 C -2.598 -2.9999 0.0 0
M  V30 30 C -4.3301 0.0 0.0 0
M  V30 31 O -4.3301 -1.9999 0.0 0
M  V30 END ATOM
M  V30 BEGIN BOND
M  V30 1 1 1 2
M  V30 2 1 3 1
M  V30 3 2 2 4
M  V30 4 1 2 5
M  V30 5 1 3 6
M  V30 6 1 3 7 CFG=3
M  V30 7 2 6 8
M  V30 8 1 7 9
M  V30 9 2 9 10
M  V30 10 1 9 11
M  V30 11 1 10 12
M  V30 12 2 11 13
M  V30 13 2 12 14
M  V30 14 1 14 15
M  V30 15 1 15 16
M  V30 16 1 17 16
M  V30 17 1 17 18
M  V30 18 1 17 19
M  V30 19 1 17 20 CFG=3
M  V30 20 1 18 21
M  V30 21 1 19 22
M  V30 22 2 21 23
M  V30 23 1 21 24
M  V30 24 1 23 25
M  V30 25 2 24 26
M  V30 26 1 24 27
M  V30 27 2 25 28
M  V30 28 1 25 29
M  V30 29 1 26 30
M  V30 30 1 28 31
M  V30 31 1 5 6
M  V30 32 1 13 14
M  V30 33 1 22 23
M  V30 34 1 26 28
M  V30 END BOND
M  V30 BEGIN COLLECTION
M  V30 MDLV30/STERAC1 ATOMS=(2 3 17)
M  V30 END COLLECTION
M  V30 END CTAB
M  END
>  <Molecule Name>


>  <status>
DISCONTINUED

>  <cas>
97322-87-7

>  <name>
TROGLITAZONE

>  <ID>
1459

>  <Smiles>
C[C@](COc1ccc(C[C@H](C(N2)=O)SC2=O)cc1)(CC1)Oc(c(C)c2C)c1c(C)c2O

$$$$

Actelion Java MolfileCreator 2.0

  0  0  0  0  0  0              0 V3000
M  V30 BEGIN CTAB
M  V30 COUNTS 29 31 0 0 0
M  V30 BEGIN ATOM
M  V30 1 O 2.598 -0.75 0.0 0
M  V30 2 C 3.8971 0.0 0.0 0
M  V30 3 N 5.1961 -0.7499 0.0 0
M  V30 4 C 3.8971 1.5 0.0 0 CFG=2
M  V30 5 C 5.1961 -2.2499 0.0 0
M  V30 6 C 6.4951 0.0 0.0 0
M  V30 7 C 5.1961 2.25 0.0 0 CFG=2
M  V30 8 C 2.598 2.2499 0.0 0
M  V30 9 C 3.8971 -3.0 0.0 0
M  V30 10 C 7.7942 -0.7499 0.0 0
M  V30 11 O 6.4951 1.5 0.0 0
M  V30 12 C 5.1961 3.75 0.0 0
M  V30 13 N 2.598 3.75 0.0 0
M  V30 14 C 7.7942 2.25 0.0 0
M  V30 15 C 3.8971 4.5 0.0 0 CFG=2
M  V30 16 C 1.299 4.5 0.0 0
M  V30 17 O 7.7942 3.75 0.0 0
M  V30 18 C 9.0932 1.5 0.0 0
M  V30 19 C 3.8971 6.0 0.0 0
M  V30 20 C 1.299 5.9999 0.0 0
M  V30 21 C 2.598 6.7499 0.0 0
M  V30 22 C 5.1961 6.75 0.0 0
M  V30 23 C 2.598 8.25 0.0 0
M  V30 24 C 5.1961 8.25 0.0 0
M  V30 25 C 3.8971 8.9999 0.0 0
M  V30 26 O 6.4951 9.0 0.0 0
M  V30 27 O 3.8971 10.5 0.0 0
M  V30 28 C 6.4951 10.5 0.0 0
M  V30 29 C 2.598 11.2499 0.0 0
M  V30 END ATOM
M  V30 BEGIN BOND
M  V30 1 2 1 2
M  V30 2 1 2 3
M  V30 3 1 4 2 CFG=1
M  V30 4 1 3 5
M  V30 5 1 3 6
M  V30 6 1 7 4
M  V30 7 1 4 8
M  V30 8 1 5 9
M  V30 9 1 6 10
M  V30 10 1 7 11 CFG=1
M  V30 11 1 7 12
M  V30 12 1 8 13
M  V30 13 1 11 14
M  V30 14 1 15 12
M  V30 15 1 13 16
M  V30 16 2 14 17
M  V30 17 1 14 18
M  V30 18 1 15 19
M  V30 19 1 16 20
M  V30 20 2 19 21
M  V30 21 1 19 22
M  V30 22 1 21 23
M  V30 23 2 22 24
M  V30 24 2 23 25
M  V30 25 1 24 26
M  V30 26 1 25 27
M  V30 27 1 26 28
M  V30 28 1 27 29
M  V30 29 1 15 13 CFG=3
M  V30 30 1 20 21
M  V30 31 1 24 25
M  V30 END BOND
M  V30 BEGIN COLLECTION
M  V30 MDLV30/STERAC1 ATOMS=(3 4 7 15)
M  V30 END COLLECTION
M  V30 END CTAB
M  END
>  <Molecule Name>


>  <status>
DISCONTINUED

>  <cas>
63-12-7

>  <name>
BENZQUINAMIDE

>  <ID>
1460

>  <Smiles>
CCN(CC)C([C@@H](CN(CC1)[C@@H](C2)c(cc3OC)c1cc3OC)[C@@H]2OC(C)=O)=O

$$$$

Actelion Java MolfileCreator 2.0

  0  0  0  0  0  0              0 V3000
M  V30 BEGIN CTAB
M  V30 COUNTS 24 27 0 0 0
M  V30 BEGIN ATOM
M  V30 1 Cl 5.1961 -0.5 0.0 0
M  V30 2 C 4.3301 0.0 0.0 0
M  V30 3 C 4.3301 0.9999 0.0 0
M  V30 4 C 3.4641 -0.5 0.0 0
M  V30 5 S 5.1961 1.4999 0.0 0
M  V30 6 C 3.4641 1.4999 0.0 0
M  V30 7 C 2.598 0.0 0.0 0
M  V30 8 O 5.6961 0.6339 0.0 0
M  V30 9 O 4.6961 2.366 0.0 0
M  V30 10 N 6.0621 1.9999 0.0 0
M  V30 11 C 2.598 0.9999 0.0 0
M  V30 12 N 1.732 -0.4999 0.0 0
M  V30 13 S 1.732 1.5 0.0 0
M  V30 14 C 0.866 0.0 0.0 0 CFG=1
M  V30 15 O 2.232 2.3659 0.0 0
M  V30 16 O 1.232 2.3659 0.0 0
M  V30 17 N 0.866 1.0 0.0 0
M  V30 18 C 0.0 -0.5 0.0 0 CFG=1
M  V30 19 C -0.9135 -0.0932 0.0 0 CFG=2
M  V30 20 C -0.1045 -1.4945 0.0 0
M  V30 21 C -2.2814 -0.2602 0.0 0
M  V30 22 C -1.5826 -0.8364 0.0 0
M  V30 23 C -1.0826 -1.7024 0.0 0 CFG=2
M  V30 24 C -2.3859 -1.2547 0.0 0
M  V30 END ATOM
M  V30 BEGIN BOND
M  V30 1 1 1 2
M  V30 2 2 2 3
M  V30 3 1 2 4
M  V30 4 1 3 5
M  V30 5 1 3 6
M  V30 6 2 4 7
M  V30 7 2 5 8
M  V30 8 2 5 9
M  V30 9 1 5 10
M  V30 10 2 6 11
M  V30 11 1 7 12
M  V30 12 1 11 13
M  V30 13 1 14 12 CFG=3
M  V30 14 2 13 15
M  V30 15 2 13 16
M  V30 16 1 13 17
M  V30 17 1 18 14
M  V30 18 1 19 18
M  V30 19 1 18 20 CFG=3
M  V30 20 1 19 21 CFG=1
M  V30 21 1 19 22
M  V30 22 1 23 20 CFG=1
M  V30 23 2 21 24
M  V30 24 1 7 11
M  V30 25 1 14 17
M  V30 26 1 22 23
M  V30 27 1 23 24
M  V30 END BOND
M  V30 BEGIN COLLECTION
M  V30 MDLV30/STERAC1 ATOMS=(4 14 18 19 23)
M  V30 END COLLECTION
M  V30 END CTAB
M  END
>  <Molecule Name>


>  <status>
DISCONTINUED

>  <cas>
159405-29-5

>  <name>
CYCLOTHIAZIDE

>  <ID>
1461

>  <Smiles>
NS(c(cc(c(N[C@H]([C@H](C1)[C@@H]2C=C[C@H]1C2)N1)c2)S1(=O)=O)c2Cl)(=O)=O

$$$$

Actelion Java MolfileCreator 2.0

  0  0  0  0  0  0              0 V3000
M  V30 BEGIN CTAB
M  V30 COUNTS 24 27 0 0 0
M  V30 BEGIN ATOM
M  V30 1 Cl 5.1961 -0.5 0.0 0
M  V30 2 C 4.3301 0.0 0.0 0
M  V30 3 C 4.3301 0.9999 0.0 0
M  V30 4 C 3.4641 -0.5 0.0 0
M  V30 5 S 5.1961 1.4999 0.0 0
M  V30 6 C 3.4641 1.4999 0.0 0
M  V30 7 C 2.598 0.0 0.0 0
M  V30 8 O 5.6961 0.6339 0.0 0
M  V30 9 O 4.6961 2.366 0.0 0
M  V30 10 N 6.0621 1.9999 0.0 0
M  V30 11 C 2.598 0.9999 0.0 0
M  V30 12 N 1.732 -0.4999 0.0 0
M  V30 13 S 1.732 1.5 0.0 0
M  V30 14 C 0.866 0.0 0.0 0 CFG=1
M  V30 15 O 2.232 2.3659 0.0 0
M  V30 16 O 1.232 2.3659 0.0 0
M  V30 17 N 0.866 1.0 0.0 0
M  V30 18 C 0.0 -0.5 0.0 0 CFG=2
M  V30 19 C -0.9135 -0.0932 0.0 0 CFG=1
M  V30 20 C -0.1045 -1.4945 0.0 0
M  V30 21 C -2.2814 -0.2602 0.0 0
M  V30 22 C -1.5826 -0.8364 0.0 0
M  V30 23 C -1.0826 -1.7024 0.0 0 CFG=1
M  V30 24 C -2.3859 -1.2547 0.0 0
M  V30 END ATOM
M  V30 BEGIN BOND
M  V30 1 1 1 2
M  V30 2 2 2 3
M  V30 3 1 2 4
M  V30 4 1 3 5
M  V30 5 1 3 6
M  V30 6 2 4 7
M  V30 7 2 5 8
M  V30 8 2 5 9
M  V30 9 1 5 10
M  V30 10 2 6 11
M  V30 11 1 7 12
M  V30 12 1 11 13
M  V30 13 1 14 12 CFG=3
M  V30 14 2 13 15
M  V30 15 2 13 16
M  V30 16 1 13 17
M  V30 17 1 18 14
M  V30 18 1 19 18
M  V30 19 1 18 20 CFG=1
M  V30 20 1 19 21 CFG=3
M  V30 21 1 19 22
M  V30 22 1 23 20 CFG=3
M  V30 23 2 21 24
M  V30 24 1 7 11
M  V30 25 1 14 17
M  V30 26 1 22 23
M  V30 27 1 23 24
M  V30 END BOND
M  V30 BEGIN COLLECTION
M  V30 MDLV30/STERAC1 ATOMS=(4 14 18 19 23)
M  V30 END COLLECTION
M  V30 END CTAB
M  END
>  <Molecule Name>


>  <status>
DISCONTINUED

>  <cas>
159405-28-4

>  <name>
CYCLOTHIAZIDE

>  <ID>
1462

>  <Smiles>
NS(c(cc(c(N[C@H]([C@@H](C1)[C@H]2C=C[C@@H]1C2)N1)c2)S1(=O)=O)c2Cl)(=O)=O

$$$$

Actelion Java MolfileCreator 2.0

  0  0  0  0  0  0              0 V3000
M  V30 BEGIN CTAB
M  V30 COUNTS 24 27 0 0 0
M  V30 BEGIN ATOM
M  V30 1 Cl 5.1961 -0.5 0.0 0
M  V30 2 C 4.3301 0.0 0.0 0
M  V30 3 C 4.3301 0.9999 0.0 0
M  V30 4 C 3.4641 -0.5 0.0 0
M  V30 5 S 5.1961 1.4999 0.0 0
M  V30 6 C 3.4641 1.4999 0.0 0
M  V30 7 C 2.598 0.0 0.0 0
M  V30 8 O 5.6961 0.6339 0.0 0
M  V30 9 O 4.6961 2.366 0.0 0
M  V30 10 N 6.0621 1.9999 0.0 0
M  V30 11 C 2.598 0.9999 0.0 0
M  V30 12 N 1.732 -0.4999 0.0 0
M  V30 13 S 1.732 1.5 0.0 0
M  V30 14 C 0.866 0.0 0.0 0 CFG=1
M  V30 15 O 2.232 2.3659 0.0 0
M  V30 16 O 1.232 2.3659 0.0 0
M  V30 17 N 0.866 1.0 0.0 0
M  V30 18 C 0.0 -0.5 0.0 0 CFG=2
M  V30 19 C -0.9135 -0.0932 0.0 0 CFG=2
M  V30 20 C -0.1045 -1.4945 0.0 0
M  V30 21 C -2.2814 -0.2602 0.0 0
M  V30 22 C -1.5826 -0.8364 0.0 0
M  V30 23 C -1.0826 -1.7024 0.0 0 CFG=2
M  V30 24 C -2.3859 -1.2547 0.0 0
M  V30 END ATOM
M  V30 BEGIN BOND
M  V30 1 1 1 2
M  V30 2 2 2 3
M  V30 3 1 2 4
M  V30 4 1 3 5
M  V30 5 1 3 6
M  V30 6 2 4 7
M  V30 7 2 5 8
M  V30 8 2 5 9
M  V30 9 1 5 10
M  V30 10 2 6 11
M  V30 11 1 7 12
M  V30 12 1 11 13
M  V30 13 1 14 12 CFG=3
M  V30 14 2 13 15
M  V30 15 2 13 16
M  V30 16 1 13 17
M  V30 17 1 18 14
M  V30 18 1 19 18
M  V30 19 1 18 20 CFG=1
M  V30 20 1 19 21 CFG=1
M  V30 21 1 19 22
M  V30 22 1 23 20 CFG=1
M  V30 23 2 21 24
M  V30 24 1 7 11
M  V30 25 1 14 17
M  V30 26 1 22 23
M  V30 27 1 23 24
M  V30 END BOND
M  V30 BEGIN COLLECTION
M  V30 MDLV30/STERAC1 ATOMS=(4 14 18 19 23)
M  V30 END COLLECTION
M  V30 END CTAB
M  END
>  <Molecule Name>


>  <status>
DISCONTINUED

>  <cas>
134077-75-1

>  <name>
CYCLOTHIAZIDE

>  <ID>
1463

>  <Smiles>
NS(c(cc(c(N[C@H]([C@@H](C1)[C@@H]2C=C[C@H]1C2)N1)c2)S1(=O)=O)c2Cl)(=O)=O

$$$$

Actelion Java MolfileCreator 2.0

  0  0  0  0  0  0              0 V3000
M  V30 BEGIN CTAB
M  V30 COUNTS 24 27 0 0 0
M  V30 BEGIN ATOM
M  V30 1 Cl 5.1961 -0.5 0.0 0
M  V30 2 C 4.3301 0.0 0.0 0
M  V30 3 C 4.3301 0.9999 0.0 0
M  V30 4 C 3.4641 -0.5 0.0 0
M  V30 5 S 5.1961 1.4999 0.0 0
M  V30 6 C 3.4641 1.4999 0.0 0
M  V30 7 C 2.598 0.0 0.0 0
M  V30 8 O 5.6961 0.6339 0.0 0
M  V30 9 O 4.6961 2.366 0.0 0
M  V30 10 N 6.0621 1.9999 0.0 0
M  V30 11 C 2.598 0.9999 0.0 0
M  V30 12 N 1.732 -0.4999 0.0 0
M  V30 13 S 1.732 1.5 0.0 0
M  V30 14 C 0.866 0.0 0.0 0 CFG=1
M  V30 15 O 2.232 2.3659 0.0 0
M  V30 16 O 1.232 2.3659 0.0 0
M  V30 17 N 0.866 1.0 0.0 0
M  V30 18 C 0.0 -0.5 0.0 0 CFG=2
M  V30 19 C -0.9135 -0.0932 0.0 0 CFG=1
M  V30 20 C -0.1045 -1.4945 0.0 0
M  V30 21 C -2.2814 -0.2602 0.0 0
M  V30 22 C -1.5826 -0.8364 0.0 0
M  V30 23 C -1.0826 -1.7024 0.0 0 CFG=1
M  V30 24 C -2.3859 -1.2547 0.0 0
M  V30 END ATOM
M  V30 BEGIN BOND
M  V30 1 1 1 2
M  V30 2 2 2 3
M  V30 3 1 2 4
M  V30 4 1 3 5
M  V30 5 1 3 6
M  V30 6 2 4 7
M  V30 7 2 5 8
M  V30 8 2 5 9
M  V30 9 1 5 10
M  V30 10 2 6 11
M  V30 11 1 7 12
M  V30 12 1 11 13
M  V30 13 1 14 12 CFG=3
M  V30 14 2 13 15
M  V30 15 2 13 16
M  V30 16 1 13 17
M  V30 17 1 18 14
M  V30 18 1 19 18
M  V30 19 1 18 20 CFG=1
M  V30 20 1 19 21 CFG=3
M  V30 21 1 19 22
M  V30 22 1 23 20 CFG=3
M  V30 23 2 21 24
M  V30 24 1 7 11
M  V30 25 1 14 17
M  V30 26 1 22 23
M  V30 27 1 23 24
M  V30 END BOND
M  V30 BEGIN COLLECTION
M  V30 MDLV30/STERAC1 ATOMS=(4 14 18 19 23)
M  V30 END COLLECTION
M  V30 END CTAB
M  END
>  <Molecule Name>


>  <status>
DISCONTINUED

>  <cas>
134077-79-5

>  <name>
CYCLOTHIAZIDE

>  <ID>
1464

>  <Smiles>
NS(c(cc(c(N[C@H]([C@@H](C1)[C@H]2C=C[C@@H]1C2)N1)c2)S1(=O)=O)c2Cl)(=O)=O

$$$$

Actelion Java MolfileCreator 2.0

  0  0  0  0  0  0              0 V3000
M  V30 BEGIN CTAB
M  V30 COUNTS 24 27 0 0 0
M  V30 BEGIN ATOM
M  V30 1 Cl 5.1961 -0.5 0.0 0
M  V30 2 C 4.3301 0.0 0.0 0
M  V30 3 C 4.3301 0.9999 0.0 0
M  V30 4 C 3.4641 -0.5 0.0 0
M  V30 5 S 5.1961 1.4999 0.0 0
M  V30 6 C 3.4641 1.4999 0.0 0
M  V30 7 C 2.598 0.0 0.0 0
M  V30 8 O 5.6961 0.6339 0.0 0
M  V30 9 O 4.6961 2.366 0.0 0
M  V30 10 N 6.0621 1.9999 0.0 0
M  V30 11 C 2.598 0.9999 0.0 0
M  V30 12 N 1.732 -0.4999 0.0 0
M  V30 13 S 1.732 1.5 0.0 0
M  V30 14 C 0.866 0.0 0.0 0 CFG=1
M  V30 15 O 2.232 2.3659 0.0 0
M  V30 16 O 1.232 2.3659 0.0 0
M  V30 17 N 0.866 1.0 0.0 0
M  V30 18 C 0.0 -0.5 0.0 0 CFG=1
M  V30 19 C -0.9135 -0.0932 0.0 0 CFG=1
M  V30 20 C -0.1045 -1.4945 0.0 0
M  V30 21 C -2.2814 -0.2602 0.0 0
M  V30 22 C -1.5826 -0.8364 0.0 0
M  V30 23 C -1.0826 -1.7024 0.0 0 CFG=1
M  V30 24 C -2.3859 -1.2547 0.0 0
M  V30 END ATOM
M  V30 BEGIN BOND
M  V30 1 1 1 2
M  V30 2 2 2 3
M  V30 3 1 2 4
M  V30 4 1 3 5
M  V30 5 1 3 6
M  V30 6 2 4 7
M  V30 7 2 5 8
M  V30 8 2 5 9
M  V30 9 1 5 10
M  V30 10 2 6 11
M  V30 11 1 7 12
M  V30 12 1 11 13
M  V30 13 1 14 12 CFG=3
M  V30 14 2 13 15
M  V30 15 2 13 16
M  V30 16 1 13 17
M  V30 17 1 18 14
M  V30 18 1 19 18
M  V30 19 1 18 20 CFG=3
M  V30 20 1 19 21 CFG=3
M  V30 21 1 19 22
M  V30 22 1 23 20 CFG=3
M  V30 23 2 21 24
M  V30 24 1 7 11
M  V30 25 1 14 17
M  V30 26 1 22 23
M  V30 27 1 23 24
M  V30 END BOND
M  V30 BEGIN COLLECTION
M  V30 MDLV30/STERAC1 ATOMS=(4 14 18 19 23)
M  V30 END COLLECTION
M  V30 END CTAB
M  END
>  <Molecule Name>


>  <status>
DISCONTINUED

>  <cas>
134077-78-4

>  <name>
CYCLOTHIAZIDE

>  <ID>
1465

>  <Smiles>
NS(c(cc(c(N[C@H]([C@H](C1)[C@H]2C=C[C@@H]1C2)N1)c2)S1(=O)=O)c2Cl)(=O)=O

$$$$

Actelion Java MolfileCreator 2.0

  0  0  0  0  0  0              0 V3000
M  V30 BEGIN CTAB
M  V30 COUNTS 24 27 0 0 0
M  V30 BEGIN ATOM
M  V30 1 Cl 5.1961 -0.5 0.0 0
M  V30 2 C 4.3301 0.0 0.0 0
M  V30 3 C 4.3301 0.9999 0.0 0
M  V30 4 C 3.4641 -0.5 0.0 0
M  V30 5 S 5.1961 1.4999 0.0 0
M  V30 6 C 3.4641 1.4999 0.0 0
M  V30 7 C 2.598 0.0 0.0 0
M  V30 8 O 5.6961 0.6339 0.0 0
M  V30 9 O 4.6961 2.366 0.0 0
M  V30 10 N 6.0621 1.9999 0.0 0
M  V30 11 C 2.598 0.9999 0.0 0
M  V30 12 N 1.732 -0.4999 0.0 0
M  V30 13 S 1.732 1.5 0.0 0
M  V30 14 C 0.866 0.0 0.0 0 CFG=1
M  V30 15 O 2.232 2.3659 0.0 0
M  V30 16 O 1.232 2.3659 0.0 0
M  V30 17 N 0.866 1.0 0.0 0
M  V30 18 C 0.0 -0.5 0.0 0 CFG=1
M  V30 19 C -0.9135 -0.0932 0.0 0 CFG=2
M  V30 20 C -0.1045 -1.4945 0.0 0
M  V30 21 C -2.2814 -0.2602 0.0 0
M  V30 22 C -1.5826 -0.8364 0.0 0
M  V30 23 C -1.0826 -1.7024 0.0 0 CFG=2
M  V30 24 C -2.3859 -1.2547 0.0 0
M  V30 END ATOM
M  V30 BEGIN BOND
M  V30 1 1 1 2
M  V30 2 2 2 3
M  V30 3 1 2 4
M  V30 4 1 3 5
M  V30 5 1 3 6
M  V30 6 2 4 7
M  V30 7 2 5 8
M  V30 8 2 5 9
M  V30 9 1 5 10
M  V30 10 2 6 11
M  V30 11 1 7 12
M  V30 12 1 11 13
M  V30 13 1 14 12 CFG=3
M  V30 14 2 13 15
M  V30 15 2 13 16
M  V30 16 1 13 17
M  V30 17 1 18 14
M  V30 18 1 19 18
M  V30 19 1 18 20 CFG=3
M  V30 20 1 19 21 CFG=1
M  V30 21 1 19 22
M  V30 22 1 23 20 CFG=1
M  V30 23 2 21 24
M  V30 24 1 7 11
M  V30 25 1 14 17
M  V30 26 1 22 23
M  V30 27 1 23 24
M  V30 END BOND
M  V30 BEGIN COLLECTION
M  V30 MDLV30/STERAC1 ATOMS=(4 14 18 19 23)
M  V30 END COLLECTION
M  V30 END CTAB
M  END
>  <Molecule Name>


>  <status>
DISCONTINUED

>  <cas>
134077-81-9

>  <name>
CYCLOTHIAZIDE

>  <ID>
1466

>  <Smiles>
NS(c(cc(c(N[C@H]([C@H](C1)[C@@H]2C=C[C@H]1C2)N1)c2)S1(=O)=O)c2Cl)(=O)=O

$$$$

Actelion Java MolfileCreator 2.0

  0  0  0  0  0  0              0 V3000
M  V30 BEGIN CTAB
M  V30 COUNTS 17 17 0 0 0
M  V30 BEGIN ATOM
M  V30 1 O 6.9282 -0.5 0.0 0
M  V30 2 C 6.0621 0.0 0.0 0
M  V30 3 C 6.0621 0.9999 0.0 0
M  V30 4 C 5.1961 -0.5 0.0 0
M  V30 5 O 6.9282 1.4999 0.0 0
M  V30 6 C 5.1961 1.4999 0.0 0
M  V30 7 C 4.3301 0.0 0.0 0
M  V30 8 C 4.3301 1.0 0.0 0
M  V30 9 C 3.4641 -0.5 0.0 0 CFG=1
M  V30 10 O 3.4641 -1.5 0.0 0
M  V30 11 C 2.598 0.0 0.0 0 CFG=1
M  V30 12 N 1.732 -0.5 0.0 0
M  V30 13 C 2.598 1.0 0.0 0
M  V30 14 C 0.866 0.0 0.0 0
M  V30 15 C 1.732 1.5 0.0 0
M  V30 16 C 0.866 1.0 0.0 0
M  V30 17 C 0.0 -0.5 0.0 0
M  V30 END ATOM
M  V30 BEGIN BOND
M  V30 1 1 1 2
M  V30 2 2 2 3
M  V30 3 1 2 4
M  V30 4 1 3 5
M  V30 5 1 3 6
M  V30 6 2 4 7
M  V30 7 2 6 8
M  V30 8 1 9 7
M  V30 9 1 9 10 CFG=1
M  V30 10 1 11 9
M  V30 11 1 11 12 CFG=1
M  V30 12 1 11 13
M  V30 13 1 12 14
M  V30 14 1 13 15
M  V30 15 1 14 16
M  V30 16 1 14 17
M  V30 17 1 7 8
M  V30 END BOND
M  V30 BEGIN COLLECTION
M  V30 MDLV30/STERAC1 ATOMS=(2 9 11)
M  V30 END COLLECTION
M  V30 END CTAB
M  END
>  <Molecule Name>


>  <status>
DISCONTINUED

>  <cas>
79490-84-9

>  <name>
ISOETHARINE

>  <ID>
1467

>  <Smiles>
CC[C@@H]([C@@H](c(cc1)cc(O)c1O)O)NC(C)C

$$$$

Actelion Java MolfileCreator 2.0

  0  0  0  0  0  0              0 V3000
M  V30 BEGIN CTAB
M  V30 COUNTS 17 17 0 0 0
M  V30 BEGIN ATOM
M  V30 1 O 6.9282 -0.5 0.0 0
M  V30 2 C 6.0621 0.0 0.0 0
M  V30 3 C 6.0621 0.9999 0.0 0
M  V30 4 C 5.1961 -0.5 0.0 0
M  V30 5 O 6.9282 1.4999 0.0 0
M  V30 6 C 5.1961 1.4999 0.0 0
M  V30 7 C 4.3301 0.0 0.0 0
M  V30 8 C 4.3301 1.0 0.0 0
M  V30 9 C 3.4641 -0.5 0.0 0 CFG=1
M  V30 10 O 3.4641 -1.5 0.0 0
M  V30 11 C 2.598 0.0 0.0 0 CFG=1
M  V30 12 N 1.732 -0.5 0.0 0
M  V30 13 C 2.598 1.0 0.0 0
M  V30 14 C 0.866 0.0 0.0 0
M  V30 15 C 1.732 1.5 0.0 0
M  V30 16 C 0.866 1.0 0.0 0
M  V30 17 C 0.0 -0.5 0.0 0
M  V30 END ATOM
M  V30 BEGIN BOND
M  V30 1 1 1 2
M  V30 2 2 2 3
M  V30 3 1 2 4
M  V30 4 1 3 5
M  V30 5 1 3 6
M  V30 6 2 4 7
M  V30 7 2 6 8
M  V30 8 1 9 7
M  V30 9 1 9 10 CFG=1
M  V30 10 1 11 9
M  V30 11 1 11 12 CFG=1
M  V30 12 1 11 13
M  V30 13 1 12 14
M  V30 14 1 13 15
M  V30 15 1 14 16
M  V30 16 1 14 17
M  V30 17 1 7 8
M  V30 END BOND
M  V30 BEGIN COLLECTION
M  V30 MDLV30/STERAC1 ATOMS=(2 9 11)
M  V30 END COLLECTION
M  V30 END CTAB
M  END
>  <Molecule Name>


>  <status>
DISCONTINUED

>  <cas>
52553-26-1

>  <name>
ISOETHARINE

>  <ID>
1468

>  <Smiles>
CC[C@@H]([C@@H](c(cc1)cc(O)c1O)O)NC(C)C

$$$$

Actelion Java MolfileCreator 2.0

  0  0  0  0  0  0              0 V3000
M  V30 BEGIN CTAB
M  V30 COUNTS 17 18 0 0 0
M  V30 BEGIN ATOM
M  V30 1 O 1.732 -1.5 0.0 0
M  V30 2 C 1.732 -0.5 0.0 0
M  V30 3 O 2.598 0.0 0.0 0
M  V30 4 C 0.866 0.0 0.0 0 CFG=2
M  V30 5 C 3.4641 -0.5 0.0 0
M  V30 6 C 0.866 1.0 0.0 0
M  V30 7 C 0.0 -0.5 0.0 0 CFG=1
M  V30 8 C 1.732 1.4999 0.0 0
M  V30 9 C 0.0 1.4999 0.0 0
M  V30 10 N -0.866 0.0 0.0 0
M  V30 11 C 0.0 -1.4999 0.0 0
M  V30 12 C 1.732 2.5 0.0 0
M  V30 13 C 0.0 2.5 0.0 0
M  V30 14 C -1.732 -0.4999 0.0 0
M  V30 15 C -0.866 -1.9999 0.0 0
M  V30 16 C 0.866 3.0 0.0 0
M  V30 17 C -1.732 -1.4999 0.0 0
M  V30 END ATOM
M  V30 BEGIN BOND
M  V30 1 2 1 2
M  V30 2 1 2 3
M  V30 3 1 4 2 CFG=1
M  V30 4 1 3 5
M  V30 5 1 4 6
M  V30 6 1 7 4
M  V30 7 2 6 8
M  V30 8 1 6 9
M  V30 9 1 7 10 CFG=3
M  V30 10 1 7 11
M  V30 11 1 8 12
M  V30 12 2 9 13
M  V30 13 1 10 14
M  V30 14 1 11 15
M  V30 15 2 12 16
M  V30 16 1 14 17
M  V30 17 1 13 16
M  V30 18 1 15 17
M  V30 END BOND
M  V30 BEGIN COLLECTION
M  V30 MDLV30/STERAC1 ATOMS=(2 4 7)
M  V30 END COLLECTION
M  V30 END CTAB
M  END
>  <Molecule Name>


>  <status>
-

>  <cas>
29419-96-3

>  <name>
METHYLPHENIDATE

>  <ID>
1469

>  <Smiles>
COC([C@@H]([C@H]1NCCCC1)c1ccccc1)=O

$$$$

Actelion Java MolfileCreator 2.0

  0  0  0  0  0  0              0 V3000
M  V30 BEGIN CTAB
M  V30 COUNTS 17 18 0 0 0
M  V30 BEGIN ATOM
M  V30 1 O 1.732 -1.5 0.0 0
M  V30 2 C 1.732 -0.5 0.0 0
M  V30 3 O 2.598 0.0 0.0 0
M  V30 4 C 0.866 0.0 0.0 0 CFG=2
M  V30 5 C 3.4641 -0.5 0.0 0
M  V30 6 C 0.866 1.0 0.0 0
M  V30 7 C 0.0 -0.5 0.0 0 CFG=1
M  V30 8 C 1.732 1.4999 0.0 0
M  V30 9 C 0.0 1.4999 0.0 0
M  V30 10 N -0.866 0.0 0.0 0
M  V30 11 C 0.0 -1.4999 0.0 0
M  V30 12 C 1.732 2.5 0.0 0
M  V30 13 C 0.0 2.5 0.0 0
M  V30 14 C -1.732 -0.4999 0.0 0
M  V30 15 C -0.866 -1.9999 0.0 0
M  V30 16 C 0.866 3.0 0.0 0
M  V30 17 C -1.732 -1.4999 0.0 0
M  V30 END ATOM
M  V30 BEGIN BOND
M  V30 1 2 1 2
M  V30 2 1 2 3
M  V30 3 1 4 2 CFG=1
M  V30 4 1 3 5
M  V30 5 1 4 6
M  V30 6 1 7 4
M  V30 7 2 6 8
M  V30 8 1 6 9
M  V30 9 1 7 10 CFG=3
M  V30 10 1 7 11
M  V30 11 1 8 12
M  V30 12 2 9 13
M  V30 13 1 10 14
M  V30 14 1 11 15
M  V30 15 2 12 16
M  V30 16 1 14 17
M  V30 17 1 13 16
M  V30 18 1 15 17
M  V30 END BOND
M  V30 BEGIN COLLECTION
M  V30 MDLV30/STERAC1 ATOMS=(2 4 7)
M  V30 END COLLECTION
M  V30 END CTAB
M  END
>  <Molecule Name>


>  <status>
-

>  <cas>
29419-97-4

>  <name>
METHYLPHENIDATE

>  <ID>
1470

>  <Smiles>
COC([C@@H]([C@H]1NCCCC1)c1ccccc1)=O

$$$$
Molecule-1
Actelion Java MolfileCreator 2.0

  0  0  0  0  0  0              0 V3000
M  V30 BEGIN CTAB
M  V30 COUNTS 31 34 0 0 0
M  V30 BEGIN ATOM
M  V30 1 F 10.7761 0.4695 0.0 0
M  V30 2 C 9.798 0.6774 0.0 0
M  V30 3 C 9.489 1.6284 0.0 0
M  V30 4 C 9.1289 -0.0657 0.0 0
M  V30 5 C 8.5108 1.8364 0.0 0
M  V30 6 C 8.1507 0.1422 0.0 0
M  V30 7 O 8.0108 2.7024 0.0 0
M  V30 8 C 7.8417 1.0932 0.0 0
M  V30 9 N 7.0327 2.4945 0.0 0
M  V30 10 C 6.9282 1.4999 0.0 0
M  V30 11 C 6.0621 0.9999 0.0 0
M  V30 12 C 5.1961 1.4999 0.0 0
M  V30 13 C 6.0621 0.0 0.0 0
M  V30 14 C 4.3301 0.9999 0.0 0
M  V30 15 C 5.1961 -0.5 0.0 0
M  V30 16 N 4.3301 0.0 0.0 0
M  V30 17 C 3.4641 -0.5 0.0 0
M  V30 18 C 2.598 0.0 0.0 0
M  V30 19 C 1.732 -0.5 0.0 0
M  V30 20 O 0.866 0.0 0.0 0
M  V30 21 C 0.0 -0.5 0.0 0
M  V30 22 C -0.866 0.0 0.0 0
M  V30 23 C 0.0 -1.4999 0.0 0
M  V30 24 O -0.866 1.0 0.0 0
M  V30 25 C -1.732 -0.4999 0.0 0
M  V30 26 C -0.866 -1.9999 0.0 0
M  V30 27 C -1.732 1.5 0.0 0
M  V30 28 C -1.732 -1.4999 0.0 0
M  V30 29 C -2.598 -1.9999 0.0 0
M  V30 30 O -3.4641 -1.4999 0.0 0
M  V30 31 C -2.598 -2.9999 0.0 0
M  V30 END ATOM
M  V30 BEGIN BOND
M  V30 1 1 1 2
M  V30 2 2 2 3
M  V30 3 1 2 4
M  V30 4 1 3 5
M  V30 5 2 4 6
M  V30 6 1 5 7
M  V30 7 2 5 8
M  V30 8 1 7 9
M  V30 9 1 8 10
M  V30 10 1 10 11
M  V30 11 1 11 12
M  V30 12 1 11 13
M  V30 13 1 12 14
M  V30 14 1 13 15
M  V30 15 1 14 16
M  V30 16 1 16 17
M  V30 17 1 17 18
M  V30 18 1 18 19
M  V30 19 1 19 20
M  V30 20 1 20 21
M  V30 21 2 21 22
M  V30 22 1 21 23
M  V30 23 1 22 24
M  V30 24 1 22 25
M  V30 25 2 23 26
M  V30 26 1 24 27
M  V30 27 2 25 28
M  V30 28 1 28 29
M  V30 29 2 29 30
M  V30 30 1 29 31
M  V30 31 1 6 8
M  V30 32 2 9 10
M  V30 33 1 15 16
M  V30 34 1 26 28
M  V30 END BOND
M  V30 END CTAB
M  END
>  <Molecule Name>
Molecule-1

>  <status>
-

>  <cas>
133454-47-4

>  <name>
ILOPERIDONE

>  <ID>
1471

>  <Smiles>
CC(c(cc1)cc(OC)c1OCCCN(CC1)CCC1c1noc2c1ccc(F)c2)=O

$$$$

Actelion Java MolfileCreator 2.0

  0  0  0  0  0  0              0 V3000
M  V30 BEGIN CTAB
M  V30 COUNTS 32 35 0 0 0
M  V30 BEGIN ATOM
M  V30 1 Cl 8.9638 3.8181 0.0 0
M  V30 2 C 8.0082 3.5233 0.0 0
M  V30 3 C 7.2752 4.2035 0.0 0
M  V30 4 C 7.7857 2.5484 0.0 0
M  V30 5 C 6.3196 3.9088 0.0 0
M  V30 6 C 6.8301 2.2537 0.0 0
M  V30 7 C 6.0971 2.9338 0.0 0
M  V30 8 C 5.6961 4.6906 0.0 0 CFG=1
M  V30 9 N 5.1961 2.5 0.0 0
M  V30 10 O 6.13 5.5916 0.0 0
M  V30 11 C 4.6961 4.6906 0.0 0
M  V30 12 C 5.1961 1.5 0.0 0
M  V30 13 C 4.2951 2.9338 0.0 0
M  V30 14 C 4.0726 3.9088 0.0 0
M  V30 15 O 6.0621 1.0 0.0 0
M  V30 16 C 4.3301 1.0 0.0 0
M  V30 17 C 3.4641 1.5 0.0 0
M  V30 18 C 4.3301 0.0 0.0 0
M  V30 19 C 2.598 0.9999 0.0 0
M  V30 20 C 3.4641 2.5 0.0 0
M  V30 21 C 3.4641 -0.4999 0.0 0
M  V30 22 C 2.598 0.0 0.0 0
M  V30 23 N 1.732 -0.5 0.0 0
M  V30 24 C 0.866 0.0 0.0 0
M  V30 25 O 0.866 1.0 0.0 0
M  V30 26 C 0.0 -0.5 0.0 0
M  V30 27 C -0.866 0.0 0.0 0
M  V30 28 C 0.0 -1.4999 0.0 0
M  V30 29 C -1.732 -0.4999 0.0 0
M  V30 30 C -0.866 1.0 0.0 0
M  V30 31 C -0.866 -1.9999 0.0 0
M  V30 32 C -1.732 -1.4999 0.0 0
M  V30 END ATOM
M  V30 BEGIN BOND
M  V30 1 1 1 2
M  V30 2 2 2 3
M  V30 3 1 2 4
M  V30 4 1 3 5
M  V30 5 2 4 6
M  V30 6 2 5 7
M  V30 7 1 8 5
M  V30 8 1 7 9
M  V30 9 1 8 10 CFG=3
M  V30 10 1 8 11
M  V30 11 1 9 12
M  V30 12 1 9 13
M  V30 13 1 11 14
M  V30 14 2 12 15
M  V30 15 1 12 16
M  V30 16 2 16 17
M  V30 17 1 16 18
M  V30 18 1 17 19
M  V30 19 1 17 20
M  V30 20 2 18 21
M  V30 21 2 19 22
M  V30 22 1 22 23
M  V30 23 1 23 24
M  V30 24 2 24 25
M  V30 25 1 24 26
M  V30 26 2 26 27
M  V30 27 1 26 28
M  V30 28 1 27 29
M  V30 29 1 27 30
M  V30 30 2 28 31
M  V30 31 2 29 32
M  V30 32 1 6 7
M  V30 33 1 13 14
M  V30 34 1 21 22
M  V30 35 1 31 32
M  V30 END BOND
M  V30 BEGIN COLLECTION
M  V30 MDLV30/STERAC1 ATOMS=(1 8)
M  V30 END COLLECTION
M  V30 END CTAB
M  END
>  <Molecule Name>


>  <status>
-

>  <cas>
150683-30-0

>  <name>
TOLVAPTAN

>  <ID>
1472

>  <Smiles>
Cc(cccc1)c1C(Nc(cc1)cc(C)c1C(N(CCCC1O)c(cc2)c1cc2Cl)=O)=O

$$$$

Actelion Java MolfileCreator 2.0

  0  0  0  0  0  0              0 V3000
M  V30 BEGIN CTAB
M  V30 COUNTS 27 30 0 0 0
M  V30 BEGIN ATOM
M  V30 1 Cl 6.4951 -4.4999 0.0 0
M  V30 2 C 6.4951 -2.9999 0.0 0
M  V30 3 C 7.7942 -2.25 0.0 0
M  V30 4 C 5.1961 -2.25 0.0 0
M  V30 5 N 9.0932 -3.0 0.0 0
M  V30 6 C 7.7942 -0.75 0.0 0
M  V30 7 N 3.8971 -3.0 0.0 0
M  V30 8 C 5.1961 -0.75 0.0 0
M  V30 9 C 8.9811 -4.4958 0.0 0
M  V30 10 C 10.3326 -2.155 0.0 0
M  V30 11 F 9.0932 0.0 0.0 0
M  V30 12 C 6.4951 0.0 0.0 0
M  V30 13 C 2.598 -2.2499 0.0 0
M  V30 14 C 3.8971 -4.5 0.0 0
M  V30 15 C 3.8971 0.0 0.0 0
M  V30 16 C 10.0807 -5.516 0.0 0 CFG=1
M  V30 17 C 11.7659 -2.5971 0.0 0
M  V30 18 C 2.598 -0.75 0.0 0
M  V30 19 C 3.1471 -5.799 0.0 0
M  V30 20 C 4.6471 -5.799 0.0 0
M  V30 21 O 3.8971 1.5 0.0 0
M  V30 22 N 9.6386 -6.9494 0.0 0
M  V30 23 C 11.5639 -5.2925 0.0 0
M  V30 24 C 12.3139 -3.9934 0.0 0
M  V30 25 C 1.299 0.0 0.0 0
M  V30 26 O 1.299 1.5 0.0 0
M  V30 27 O 0.0 -0.75 0.0 0 CHG=-1
M  V30 END ATOM
M  V30 BEGIN BOND
M  V30 1 1 1 2
M  V30 2 2 2 3
M  V30 3 1 2 4
M  V30 4 1 3 5
M  V30 5 1 3 6
M  V30 6 1 4 7
M  V30 7 2 4 8
M  V30 8 1 5 9
M  V30 9 1 5 10
M  V30 10 1 6 11
M  V30 11 2 6 12
M  V30 12 1 7 13
M  V30 13 1 7 14
M  V30 14 1 8 15
M  V30 15 1 16 9
M  V30 16 1 10 17
M  V30 17 2 13 18
M  V30 18 1 14 19
M  V30 19 1 14 20
M  V30 20 2 15 21
M  V30 21 1 16 22 CFG=3
M  V30 22 1 16 23
M  V30 23 1 17 24
M  V30 24 1 18 25
M  V30 25 2 25 26
M  V30 26 1 25 27
M  V30 27 1 8 12
M  V30 28 1 15 18
M  V30 29 1 19 20
M  V30 30 1 23 24
M  V30 END BOND
M  V30 BEGIN COLLECTION
M  V30 MDLV30/STERAC1 ATOMS=(1 16)
M  V30 END COLLECTION
M  V30 END CTAB
M  END
>  <Molecule Name>


>  <status>
-

>  <cas>
141388-76-3

>  <name>
BESIFLOXACIN

>  <ID>
1473

>  <Smiles>
NC(CCCC1)CN1c(c(F)cc1c2N(C3CC3)C=C(C([O-])=O)C1=O)c2Cl

$$$$

Actelion Java MolfileCreator 2.0

  0  0  0  0  0  0              0 V3000
M  V30 BEGIN CTAB
M  V30 COUNTS 26 29 0 0 0
M  V30 BEGIN ATOM
M  V30 1 S 2.7026 0.9945 0.0 0
M  V30 2 C 2.598 0.0 0.0 0
M  V30 3 C 3.6807 1.2024 0.0 0
M  V30 4 O 1.732 -0.5 0.0 0
M  V30 5 C 3.5116 -0.4067 0.0 0
M  V30 6 C 4.1807 0.3364 0.0 0
M  V30 7 C 4.1807 2.0684 0.0 0
M  V30 8 C 0.866 0.0 0.0 0
M  V30 9 C 5.1807 0.3364 0.0 0
M  V30 10 C 5.1807 2.0684 0.0 0
M  V30 11 O 0.866 1.0 0.0 0
M  V30 12 C 0.0 -0.5 0.0 0
M  V30 13 N 5.6807 1.2024 0.0 0
M  V30 14 C 6.6807 1.2024 0.0 0 CFG=2
M  V30 15 C 7.1807 2.0684 0.0 0
M  V30 16 C 7.1807 0.3364 0.0 0
M  V30 17 C 6.6807 2.9344 0.0 0
M  V30 18 C 8.1807 2.0684 0.0 0
M  V30 19 O 6.6807 -0.5296 0.0 0
M  V30 20 C 8.1807 0.3364 0.0 0
M  V30 21 F 5.6807 2.9344 0.0 0
M  V30 22 C 7.1807 3.8005 0.0 0
M  V30 23 C 8.6807 2.9344 0.0 0
M  V30 24 C 9.0467 -0.1635 0.0 0
M  V30 25 C 9.0467 0.8364 0.0 0
M  V30 26 C 8.1807 3.8005 0.0 0
M  V30 END ATOM
M  V30 BEGIN BOND
M  V30 1 1 1 2
M  V30 2 1 1 3
M  V30 3 1 2 4
M  V30 4 2 2 5
M  V30 5 2 3 6
M  V30 6 1 3 7
M  V30 7 1 4 8
M  V30 8 1 6 9
M  V30 9 1 7 10
M  V30 10 2 8 11
M  V30 11 1 8 12
M  V30 12 1 9 13
M  V30 13 1 14 13 CFG=3
M  V30 14 1 14 15
M  V30 15 1 14 16
M  V30 16 2 15 17
M  V30 17 1 15 18
M  V30 18 2 16 19
M  V30 19 1 16 20
M  V30 20 1 17 21
M  V30 21 1 17 22
M  V30 22 2 18 23
M  V30 23 1 20 24
M  V30 24 1 20 25
M  V30 25 2 22 26
M  V30 26 1 5 6
M  V30 27 1 10 13
M  V30 28 1 23 26
M  V30 29 1 24 25
M  V30 END BOND
M  V30 BEGIN COLLECTION
M  V30 MDLV30/STERAC1 ATOMS=(1 14)
M  V30 END COLLECTION
M  V30 END CTAB
M  END
>  <Molecule Name>


>  <status>
-

>  <cas>
150322-43-3

>  <name>
PRASUGREL

>  <ID>
1474

>  <Smiles>
CC(Oc1cc(CN(CC2)C(C(C3CC3)=O)c(cccc3)c3F)c2s1)=O

$$$$

Actelion Java MolfileCreator 2.0

  0  0  0  0  0  0              0 V3000
M  V30 BEGIN CTAB
M  V30 COUNTS 31 34 0 0 0
M  V30 BEGIN ATOM
M  V30 1 F 5.1961 -5.2499 0.0 0
M  V30 2 C 6.4951 -4.4999 0.0 0
M  V30 3 C 7.7942 -5.2499 0.0 0
M  V30 4 C 6.4951 -2.9999 0.0 0
M  V30 5 C 9.0932 -4.5 0.0 0
M  V30 6 C 7.7942 -2.2499 0.0 0
M  V30 7 C 9.0932 -2.9999 0.0 0
M  V30 8 C 10.3923 -2.25 0.0 0
M  V30 9 C 11.6913 -3.0 0.0 0
M  V30 10 C 10.3923 -0.75 0.0 0
M  V30 11 C 12.9903 -2.25 0.0 0
M  V30 12 C 11.6913 -4.4999 0.0 0
M  V30 13 C 11.6913 0.0 0.0 0
M  V30 14 C 9.0932 0.0 0.0 0
M  V30 15 N 12.9903 -0.75 0.0 0
M  V30 16 C 14.2894 -3.0 0.0 0
M  V30 17 C 12.9903 -5.25 0.0 0
M  V30 18 C 11.6913 1.4999 0.0 0
M  V30 19 C 7.7942 -0.75 0.0 0
M  V30 20 C 14.2894 -4.5 0.0 0
M  V30 21 C 12.4413 2.799 0.0 0
M  V30 22 C 10.9413 2.799 0.0 0
M  V30 23 C 6.4951 0.0 0.0 0 CFG=1
M  V30 24 O 6.4951 1.5 0.0 0
M  V30 25 C 5.1961 -0.75 0.0 0
M  V30 26 C 3.8971 0.0 0.0 0 CFG=1
M  V30 27 O 3.8971 1.5 0.0 0
M  V30 28 C 2.598 -0.75 0.0 0
M  V30 29 C 1.299 0.0 0.0 0
M  V30 30 O 1.299 1.5 0.0 0
M  V30 31 O 0.0 -0.75 0.0 0 CHG=-1
M  V30 END ATOM
M  V30 BEGIN BOND
M  V30 1 1 1 2
M  V30 2 2 2 3
M  V30 3 1 2 4
M  V30 4 1 3 5
M  V30 5 2 4 6
M  V30 6 2 5 7
M  V30 7 1 7 8
M  V30 8 1 8 9
M  V30 9 2 8 10
M  V30 10 1 9 11
M  V30 11 2 9 12
M  V30 12 1 10 13
M  V30 13 1 10 14
M  V30 14 1 11 15
M  V30 15 2 11 16
M  V30 16 1 12 17
M  V30 17 1 13 18
M  V30 18 2 14 19
M  V30 19 1 16 20
M  V30 20 1 18 21
M  V30 21 1 18 22
M  V30 22 1 23 19
M  V30 23 1 23 24 CFG=3
M  V30 24 1 23 25
M  V30 25 1 26 25
M  V30 26 1 26 27 CFG=3
M  V30 27 1 26 28
M  V30 28 1 28 29
M  V30 29 2 29 30
M  V30 30 1 29 31
M  V30 31 1 6 7
M  V30 32 2 13 15
M  V30 33 2 17 20
M  V30 34 1 21 22
M  V30 END BOND
M  V30 BEGIN COLLECTION
M  V30 MDLV30/STERAC1 ATOMS=(2 23 26)
M  V30 END COLLECTION
M  V30 END CTAB
M  END
>  <Molecule Name>


>  <status>
-

>  <cas>
147511-69-1

>  <name>
PITAVASTATIN

>  <ID>
1475

>  <Smiles>
[O-]C(C[C@@H](C[C@@H](/C=C/c1c(-c(cc2)ccc2F)c2ccccc2nc1C1CC1)O)O)=O

$$$$
_c001
Actelion Java MolfileCreator 2.0

  0  0  0  0  0  0              0 V3000
M  V30 BEGIN CTAB
M  V30 COUNTS 23 27 0 0 0
M  V30 BEGIN ATOM
M  V30 1 O 2.6295 0.0145 0.0 0
M  V30 2 C 1.6834 0.3386 0.0 0
M  V30 3 N 1.4911 1.32 0.0 0
M  V30 4 C 0.9297 -0.3185 0.0 0 CFG=1
M  V30 5 C 2.172 2.0524 0.0 0 CFG=2
M  V30 6 C 0.5841 1.7412 0.0 0 CFG=2
M  V30 7 N 1.1221 -1.2998 0.0 0
M  V30 8 C 0.0 0.0 0.0 0 CFG=1
M  V30 9 C 3.1647 1.932 0.0 0
M  V30 10 C 1.6858 2.9262 0.0 0
M  V30 11 C 0.7045 2.7339 0.0 0 CFG=2
M  V30 12 C -0.2153 2.3418 0.0 0
M  V30 13 C 0.0172 1.0847 0.0 0
M  V30 14 C -0.7406 -0.2764 0.0 0
M  V30 15 C -0.5768 -0.749 0.0 0
M  V30 16 N 4.1574 1.8117 0.0 0
M  V30 17 C -0.9986 1.4291 0.0 0 CFG=1
M  V30 18 C -1.9199 0.0655 0.0 0 CFG=2
M  V30 19 C -1.5588 -0.4611 0.0 0 CFG=1
M  V30 20 O -1.029 2.4286 0.0 0
M  V30 21 C -1.8677 1.1055 0.0 0
M  V30 22 C -1.461 0.7879 0.0 0
M  V30 23 C -2.4708 -0.7059 0.0 0
M  V30 END ATOM
M  V30 BEGIN BOND
M  V30 1 2 1 2
M  V30 2 1 2 3
M  V30 3 1 4 2
M  V30 4 1 5 3
M  V30 5 1 6 3 CFG=1
M  V30 6 1 4 7 CFG=1
M  V30 7 1 8 4
M  V30 8 1 5 9 CFG=1
M  V30 9 1 5 10
M  V30 10 1 11 6
M  V30 11 1 6 12
M  V30 12 1 8 13 CFG=1
M  V30 13 1 8 14
M  V30 14 1 8 15
M  V30 15 3 9 16
M  V30 16 1 17 13
M  V30 17 1 18 14 CFG=1
M  V30 18 1 19 15 CFG=3
M  V30 19 1 17 20 CFG=1
M  V30 20 1 17 21
M  V30 21 1 17 22
M  V30 22 1 18 23
M  V30 23 1 11 10 CFG=1
M  V30 24 1 11 12
M  V30 25 1 18 21
M  V30 26 1 19 22
M  V30 27 1 19 23
M  V30 END BOND
M  V30 BEGIN COLLECTION
M  V30 MDLV30/STEABS ATOMS=(4 8 17 18 19)
M  V30 MDLV30/STERAC1 ATOMS=(4 4 5 6 11)
M  V30 END COLLECTION
M  V30 END CTAB
M  END
>  <Molecule Name>
_c001

>  <status>
-

>  <cas>
361442-04-8

>  <name>
SAXAGLIPTIN

>  <ID>
1476

>  <Smiles>
N[C@@H]([C@@](C[C@@H](C1)C2)(C[C@H]1C1)C[C@@]12O)C(N([C@@H](C1)[C@@H]1C1)[C@@H]1C#N)=O

$$$$

Actelion Java MolfileCreator 2.0

  0  0  0  0  0  0              0 V3000
M  V30 BEGIN CTAB
M  V30 COUNTS 20 23 0 0 0
M  V30 BEGIN ATOM
M  V30 1 Cl 4.8381 -2.0572 0.0 0
M  V30 2 C 4.6156 -1.0823 0.0 0
M  V30 3 C 3.66 -0.7875 0.0 0
M  V30 4 C 5.3486 -0.4021 0.0 0
M  V30 5 C 3.4375 0.1873 0.0 0
M  V30 6 C 5.1261 0.5727 0.0 0
M  V30 7 C 4.1705 0.8675 0.0 0
M  V30 8 C 2.4487 0.3364 0.0 0 CFG=2
M  V30 9 O 4.0958 1.8647 0.0 0
M  V30 10 C 1.9487 1.2024 0.0 0 CFG=1
M  V30 11 C 1.7795 -0.4067 0.0 0
M  V30 12 C 3.2696 2.428 0.0 0
M  V30 13 C 2.314 2.1333 0.0 0
M  V30 14 C 0.9705 0.9945 0.0 0
M  V30 15 N 0.866 0.0 0.0 0
M  V30 16 C 3.4921 3.4029 0.0 0
M  V30 17 C 1.5809 2.8134 0.0 0
M  V30 18 C 0.0 -0.5 0.0 0
M  V30 19 C 2.759 4.0831 0.0 0
M  V30 20 C 1.8035 3.7884 0.0 0
M  V30 END ATOM
M  V30 BEGIN BOND
M  V30 1 1 1 2
M  V30 2 2 2 3
M  V30 3 1 2 4
M  V30 4 1 3 5
M  V30 5 2 4 6
M  V30 6 2 5 7
M  V30 7 1 8 5
M  V30 8 1 7 9
M  V30 9 1 10 8
M  V30 10 1 8 11 CFG=1
M  V30 11 1 9 12
M  V30 12 1 10 13
M  V30 13 1 10 14 CFG=3
M  V30 14 1 11 15
M  V30 15 1 12 16
M  V30 16 1 13 17
M  V30 17 1 15 18
M  V30 18 2 16 19
M  V30 19 2 17 20
M  V30 20 1 6 7
M  V30 21 2 12 13
M  V30 22 1 14 15
M  V30 23 1 19 20
M  V30 END BOND
M  V30 BEGIN COLLECTION
M  V30 MDLV30/STERAC1 ATOMS=(2 8 10)
M  V30 END COLLECTION
M  V30 END CTAB
M  END
>  <Molecule Name>


>  <status>
-

>  <cas>
65576-45-6

>  <name>
ASENAPINE

>  <ID>
1477

>  <Smiles>
CN(C[C@@H]12)C[C@@H]2c(cc(cc2)Cl)c2Oc2c1cccc2

$$$$

Actelion Java MolfileCreator 2.0

  0  0  0  0  0  0              0 V3000
M  V30 BEGIN CTAB
M  V30 COUNTS 9 8 0 0 0
M  V30 BEGIN ATOM
M  V30 1 O 5.1961 -0.5 0.0 0
M  V30 2 C 4.3301 0.0 0.0 0
M  V30 3 O 4.3301 1.0 0.0 0 CHG=-1
M  V30 4 C 3.4641 -0.5 0.0 0
M  V30 5 C 2.598 0.0 0.0 0
M  V30 6 C 1.732 -0.5 0.0 0 CFG=2
M  V30 7 N 1.732 -1.5 0.0 0
M  V30 8 C 0.866 0.0 0.0 0
M  V30 9 C 0.0 -0.5 0.0 0
M  V30 END ATOM
M  V30 BEGIN BOND
M  V30 1 2 1 2
M  V30 2 1 2 3
M  V30 3 1 2 4
M  V30 4 1 4 5
M  V30 5 1 6 5
M  V30 6 1 6 7 CFG=3
M  V30 7 1 6 8
M  V30 8 2 8 9
M  V30 END BOND
M  V30 BEGIN COLLECTION
M  V30 MDLV30/STERAC1 ATOMS=(1 6)
M  V30 END COLLECTION
M  V30 END CTAB
M  END
>  <Molecule Name>


>  <status>
-

>  <cas>
68506-86-5

>  <name>
VIGABATRIN

>  <ID>
1478

>  <Smiles>
C=CC(CCC([O-])=O)N

$$$$

Actelion Java MolfileCreator 2.0

  0  0  0  0  0  0              0 V3000
M  V30 BEGIN CTAB
M  V30 COUNTS 27 29 0 0 0
M  V30 BEGIN ATOM
M  V30 1 Cl 11.2583 2.9999 0.0 0
M  V30 2 C 10.3923 2.4999 0.0 0
M  V30 3 C 9.5262 2.9999 0.0 0
M  V30 4 C 10.3923 1.4999 0.0 0
M  V30 5 C 8.6602 2.4999 0.0 0
M  V30 6 C 9.5262 0.9999 0.0 0
M  V30 7 C 8.6602 1.4999 0.0 0
M  V30 8 C 7.7942 0.9999 0.0 0 CFG=2
M  V30 9 O 6.9282 1.4999 0.0 0
M  V30 10 C 7.7942 0.0 0.0 0
M  V30 11 C 6.0621 0.9999 0.0 0
M  V30 12 N 6.9282 -0.5 0.0 0
M  V30 13 C 8.6602 -0.5 0.0 0
M  V30 14 C 5.1961 1.4999 0.0 0
M  V30 15 C 6.0621 0.0 0.0 0
M  V30 16 C 6.9282 -1.5 0.0 0
M  V30 17 C 8.6602 -1.5 0.0 0
M  V30 18 C 4.3301 0.9999 0.0 0
M  V30 19 C 5.1961 -0.5 0.0 0
M  V30 20 C 7.7942 -2.0 0.0 0
M  V30 21 N 4.3301 0.0 0.0 0
M  V30 22 C 3.4641 -0.5 0.0 0
M  V30 23 C 2.598 0.0 0.0 0
M  V30 24 C 1.732 -0.5 0.0 0
M  V30 25 C 0.866 0.0 0.0 0
M  V30 26 O 0.866 1.0 0.0 0
M  V30 27 O 0.0 -0.5 0.0 0 CHG=-1
M  V30 END ATOM
M  V30 BEGIN BOND
M  V30 1 1 1 2
M  V30 2 2 2 3
M  V30 3 1 2 4
M  V30 4 1 3 5
M  V30 5 2 4 6
M  V30 6 2 5 7
M  V30 7 1 8 7
M  V30 8 1 8 9 CFG=1
M  V30 9 1 8 10
M  V30 10 1 9 11
M  V30 11 2 10 12
M  V30 12 1 10 13
M  V30 13 1 11 14
M  V30 14 1 11 15
M  V30 15 1 12 16
M  V30 16 2 13 17
M  V30 17 1 14 18
M  V30 18 1 15 19
M  V30 19 2 16 20
M  V30 20 1 18 21
M  V30 21 1 21 22
M  V30 22 1 22 23
M  V30 23 1 23 24
M  V30 24 1 24 25
M  V30 25 2 25 26
M  V30 26 1 25 27
M  V30 27 1 6 7
M  V30 28 1 17 20
M  V30 29 1 19 21
M  V30 END BOND
M  V30 BEGIN COLLECTION
M  V30 MDLV30/STERAC1 ATOMS=(1 8)
M  V30 END COLLECTION
M  V30 END CTAB
M  END
>  <Molecule Name>


>  <status>
-

>  <cas>
125602-71-3

>  <name>
BEPOTASTINE

>  <ID>
1479

>  <Smiles>
[O-]C(CCCN(CC1)CCC1OC(c(cc1)ccc1Cl)c1ncccc1)=O

$$$$

Actelion Java MolfileCreator 2.0

  0  0  0  0  0  0              0 V3000
M  V30 BEGIN CTAB
M  V30 COUNTS 121 130 0 0 0
M  V30 BEGIN ATOM
M  V30 1 Cl -4.5527 -1.8775 0.0 0
M  V30 2 C -5.8535 -1.1265 0.0 0
M  V30 3 C -5.8535 0.3755 0.0 0
M  V30 4 C -7.1543 -1.8775 0.0 0
M  V30 5 O -3.9023 0.0 0.0 0
M  V30 6 C -7.1741 1.0907 0.0 0
M  V30 7 C -8.455 -1.1265 0.0 0
M  V30 8 C -2.6015 -0.751 0.0 0
M  V30 9 C -8.455 0.3755 0.0 0
M  V30 10 C -9.1054 -3.004 0.0 0 CFG=1
M  V30 11 C -1.3007 0.0 0.0 0
M  V30 12 C -2.6015 -2.253 0.0 0
M  V30 13 O -10.5866 -2.7547 0.0 0
M  V30 14 C -9.1054 -4.506 0.0 0 CFG=1
M  V30 15 O -1.3007 1.502 0.0 0
M  V30 16 C 0.0 -0.751 0.0 0
M  V30 17 C -1.3007 -3.004 0.0 0
M  V30 18 N -10.4062 -5.257 0.0 0
M  V30 19 C -7.8046 -5.257 0.0 0
M  V30 20 C -2.6015 2.253 0.0 0 CFG=2
M  V30 21 O 1.3007 0.0 0.0 0
M  V30 22 C 0.0 -2.253 0.0 0
M  V30 23 C -1.3007 -4.506 0.0 0 CFG=1
M  V30 24 C -10.4062 -6.759 0.0 0
M  V30 25 O -7.8046 -6.759 0.0 0
M  V30 26 N -6.5039 -4.506 0.0 0
M  V30 27 O -3.9023 1.502 0.0 0
M  V30 28 C -2.6015 3.755 0.0 0 CFG=2
M  V30 29 C 2.6015 -0.751 0.0 0
M  V30 30 N -2.6015 -5.257 0.0 0
M  V30 31 C 0.0 -5.257 0.0 0
M  V30 32 O -9.1054 -7.51 0.0 0
M  V30 33 C -11.707 -7.51 0.0 0 CFG=2
M  V30 34 C -5.2031 -5.257 0.0 0 CFG=2
M  V30 35 C -5.2031 2.253 0.0 0 CFG=1
M  V30 36 O -1.3007 4.506 0.0 0
M  V30 37 C -3.9023 4.506 0.0 0 CFG=2
M  V30 38 C 3.9023 0.0 0.0 0
M  V30 39 C 2.6015 -2.253 0.0 0
M  V30 40 C -3.9023 -4.506 0.0 0
M  V30 41 O 0.0 -6.759 0.0 0
M  V30 42 N 1.3007 -4.506 0.0 0
M  V30 43 N -13.0078 -6.759 0.0 0
M  V30 44 C -11.707 -9.012 0.0 0
M  V30 45 C -5.2031 -6.759 0.0 0
M  V30 46 C -5.2031 3.755 0.0 0 CFG=2
M  V30 47 C -6.4913 1.5237 0.0 0
M  V30 48 C -1.3007 6.008 0.0 0 CFG=2
M  V30 49 O -3.9023 6.008 0.0 0
M  V30 50 Cl 3.9023 1.502 0.0 0
M  V30 51 C 5.2031 -0.751 0.0 0
M  V30 52 C 3.8183 -2.836 0.0 0
M  V30 53 O -3.9023 -3.004 0.0 0
M  V30 54 C 2.6015 -5.257 0.0 0 CFG=1
M  V30 55 C -14.3086 -7.51 0.0 0
M  V30 56 C -13.0078 -9.763 0.0 0
M  V30 57 C -3.9023 -7.51 0.0 0
M  V30 58 O -6.5039 4.506 0.0 0
M  V30 59 O -7.8046 2.253 0.0 0
M  V30 60 O 0.0 6.759 0.0 0
M  V30 61 C -2.6015 6.759 0.0 0
M  V30 62 C 5.2031 -2.253 0.0 0
M  V30 63 C 3.9023 -4.506 0.0 0
M  V30 64 C 2.6015 -6.759 0.0 0
M  V30 65 C -14.3086 -9.012 0.0 0
M  V30 66 C -13.0078 -11.2651 0.0 0
M  V30 67 O -2.6015 -6.759 0.0 0
M  V30 68 N -3.9023 -9.012 0.0 0
M  V30 69 C 0.0 8.261 0.0 0 CFG=2
M  V30 70 C -2.6015 8.261 0.0 0 CFG=1
M  V30 71 C 6.5039 -3.004 0.0 0 CFG=1
M  V30 72 O 4.0702 -3.3398 0.0 0
M  V30 73 N 5.0504 -5.1246 0.0 0
M  V30 74 C 3.8399 -7.6973 0.0 0
M  V30 75 C 1.3007 -7.51 0.0 0
M  V30 76 C -1.3007 9.012 0.0 0 CFG=2
M  V30 77 C 1.3007 9.012 0.0 0
M  V30 78 N -3.9023 9.012 0.0 0
M  V30 79 C -2.6015 9.763 0.0 0
M  V30 80 O 7.8046 -2.253 0.0 0
M  V30 81 C 6.5039 -4.506 0.0 0 CFG=2
M  V30 82 C 3.9023 -9.012 0.0 0
M  V30 83 C 1.3007 -9.012 0.0 0
M  V30 84 O -1.3007 10.514 0.0 0
M  V30 85 C -3.9023 10.514 0.0 0
M  V30 86 C 7.8046 -5.257 0.0 0
M  V30 87 C 5.2031 -9.763 0.0 0
M  V30 88 C 2.6015 -9.763 0.0 0
M  V30 89 C -2.6015 11.2651 0.0 0
M  V30 90 O 9.1054 -4.506 0.0 0
M  V30 91 N 7.8046 -6.759 0.0 0
M  V30 92 C 5.2031 -11.2651 0.0 0
M  V30 93 C 6.5039 -9.012 0.0 0
M  V30 94 O 2.6015 -11.2651 0.0 0
M  V30 95 N -2.6015 12.7671 0.0 0
M  V30 96 C 6.5039 -7.51 0.0 0 CFG=1
M  V30 97 O 3.9023 -12.0161 0.0 0
M  V30 98 C 6.5039 -12.0161 0.0 0
M  V30 99 C 7.8046 -9.763 0.0 0
M  V30 100 C -1.3007 13.5181 0.0 0
M  V30 101 C 5.2031 -6.759 0.0 0
M  V30 102 C 7.8046 -11.2651 0.0 0
M  V30 103 C 6.5039 -13.5181 0.0 0
M  V30 104 C -1.3007 15.0201 0.0 0
M  V30 105 O 5.4652 -5.4843 0.0 0
M  V30 106 O 4.0149 -7.1721 0.0 0 CHG=-1
M  V30 107 O 9.1054 -12.0161 0.0 0
M  V30 108 N 7.8046 -14.2691 0.0 0
M  V30 109 C 0.0 15.7711 0.0 0
M  V30 110 C 7.8046 -15.7711 0.0 0
M  V30 111 C 0.0 17.2731 0.0 0
M  V30 112 P 9.1054 -16.5221 0.0 0
M  V30 113 C 1.3007 18.0241 0.0 0
M  V30 114 O 8.3544 -17.8229 0.0 0
M  V30 115 O 10.4062 -17.2731 0.0 0 CHG=-1
M  V30 116 O 9.8564 -15.2213 0.0 0 CHG=-1
M  V30 117 C 1.3007 19.5261 0.0 0
M  V30 118 C 2.6015 20.2771 0.0 0
M  V30 119 C 2.6015 21.7792 0.0 0
M  V30 120 C 3.9023 22.5302 0.0 0
M  V30 121 C 3.9023 24.0322 0.0 0
M  V30 END ATOM
M  V30 BEGIN BOND
M  V30 1 1 1 2
M  V30 2 2 2 3
M  V30 3 1 2 4
M  V30 4 1 3 5
M  V30 5 1 3 6
M  V30 6 2 4 7
M  V30 7 1 5 8
M  V30 8 2 6 9
M  V30 9 1 10 7
M  V30 10 2 8 11
M  V30 11 1 8 12
M  V30 12 1 10 13 CFG=3
M  V30 13 1 14 10
M  V30 14 1 11 15
M  V30 15 1 11 16
M  V30 16 2 12 17
M  V30 17 1 14 18 CFG=3
M  V30 18 1 14 19
M  V30 19 1 20 15 CFG=3
M  V30 20 1 16 21
M  V30 21 2 16 22
M  V30 22 1 23 17
M  V30 23 1 18 24
M  V30 24 2 19 25
M  V30 25 1 19 26
M  V30 26 1 20 27
M  V30 27 1 28 20
M  V30 28 1 21 29
M  V30 29 1 23 30 CFG=3
M  V30 30 1 23 31
M  V30 31 2 24 32
M  V30 32 1 33 24
M  V30 33 1 34 26
M  V30 34 1 35 27
M  V30 35 1 28 36 CFG=1
M  V30 36 1 37 28
M  V30 37 2 29 38
M  V30 38 1 29 39
M  V30 39 1 30 40
M  V30 40 2 31 41
M  V30 41 1 31 42
M  V30 42 1 33 43 CFG=1
M  V30 43 1 33 44
M  V30 44 1 34 45 CFG=3
M  V30 45 1 46 35
M  V30 46 1 35 47 CFG=3
M  V30 47 1 48 36 CFG=1
M  V30 48 1 37 49 CFG=3
M  V30 49 1 38 50
M  V30 50 1 38 51
M  V30 51 2 39 52
M  V30 52 2 40 53
M  V30 53 1 54 42 CFG=1
M  V30 54 1 43 55
M  V30 55 1 44 56
M  V30 56 1 45 57
M  V30 57 1 46 58 CFG=1
M  V30 58 1 47 59
M  V30 59 1 48 60
M  V30 60 1 48 61
M  V30 61 2 51 62
M  V30 62 1 54 63
M  V30 63 1 54 64
M  V30 64 1 56 65
M  V30 65 1 56 66
M  V30 66 2 57 67
M  V30 67 1 57 68
M  V30 68 1 69 60
M  V30 69 1 70 61
M  V30 70 1 71 62
M  V30 71 2 63 72
M  V30 72 1 63 73
M  V30 73 2 64 74
M  V30 74 1 64 75
M  V30 75 1 76 69
M  V30 76 1 69 77 CFG=3
M  V30 77 1 70 78
M  V30 78 1 70 79 CFG=1
M  V30 79 1 71 80 CFG=1
M  V30 80 1 81 71
M  V30 81 1 82 74 CFG=1
M  V30 82 2 75 83
M  V30 83 1 76 84 CFG=3
M  V30 84 1 78 85
M  V30 85 1 81 86
M  V30 86 1 82 87
M  V30 87 2 82 88
M  V30 88 1 85 89
M  V30 89 2 86 90
M  V30 90 1 86 91
M  V30 91 2 87 92
M  V30 92 1 87 93
M  V30 93 1 88 94
M  V30 94 1 89 95
M  V30 95 1 96 91
M  V30 96 1 92 97
M  V30 97 1 92 98
M  V30 98 2 93 99
M  V30 99 1 95 100
M  V30 100 1 96 101 CFG=1
M  V30 101 2 98 102
M  V30 102 1 98 103
M  V30 103 1 100 104
M  V30 104 2 101 105
M  V30 105 1 101 106
M  V30 106 1 102 107
M  V30 107 1 103 108
M  V30 108 1 104 109
M  V30 109 1 108 110
M  V30 110 1 109 111
M  V30 111 1 110 112
M  V30 112 1 111 113
M  V30 113 2 112 114
M  V30 114 1 112 115
M  V30 115 1 112 116
M  V30 116 1 113 117
M  V30 117 1 117 118
M  V30 118 1 118 119
M  V30 119 1 119 120
M  V30 120 1 120 121
M  V30 121 1 7 9
M  V30 122 1 17 22
M  V30 123 1 34 40
M  V30 124 1 37 46
M  V30 125 1 52 62
M  V30 126 1 70 76
M  V30 127 1 81 73 CFG=1
M  V30 128 1 83 88
M  V30 129 1 93 96
M  V30 130 1 99 102
M  V30 END BOND
M  V30 BEGIN COLLECTION
M  V30 MDLV30/STEABS BONDS=(1 86)
M  V30 MDLV30/STERAC1 ATOMS=(18 10 14 20 23 28 33 34 35 37 46 48 54 69 70 71 76 81 96)
M  V30 END COLLECTION
M  V30 END CTAB
M  END
>  <Molecule Name>


>  <status>
-

>  <cas>
372151-71-8

>  <name>
TELAVANCIN

>  <ID>
1480

>  <Smiles>
CCCCCCCCCCNCCN[C@@](C)(C[C@H](O[C@H]([C@H]1O)[C@H](Oc(c(Oc(ccc([C@H]([C@@H](C(N[C@H](C([O-])=O)c2cc(O)c(CNCP([O-])([O-])=O)c(O)c2-c(cc([C@H]2NC([C@@H]3NC([C@H](CC(N)=O)NC([C@@H]([C@@H](c(cc4)c5)O)NC([C@@H](CC(C)C)NC)=O)=O)=O)=O)cc6)c6O)=O)NC2=O)O)c2)c2Cl)cc3c2)c2Oc4c5Cl)O[C@H](CO)[C@H]1O)O[C@H]1C)[C@@H]1O

$$$$

Actelion Java MolfileCreator 2.0

  0  0  0  0  0  0              0 V3000
M  V30 BEGIN CTAB
M  V30 COUNTS 35 37 0 0 0
M  V30 BEGIN ATOM
M  V30 1 O 9.0932 0.0 0.0 0
M  V30 2 C 7.7942 -0.75 0.0 0
M  V30 3 N 6.4951 0.0 0.0 0
M  V30 4 C 7.7942 -2.25 0.0 0
M  V30 5 C 5.1961 -0.75 0.0 0 CFG=2
M  V30 6 C 6.4951 -2.9999 0.0 0
M  V30 7 C 9.0932 -3.0 0.0 0
M  V30 8 C 3.8971 0.0 0.0 0
M  V30 9 C 5.1961 -2.25 0.0 0
M  V30 10 C 6.4951 -4.5 0.0 0
M  V30 11 C 9.0932 -4.5 0.0 0
M  V30 12 O 2.598 -0.75 0.0 0
M  V30 13 O 3.8971 1.4999 0.0 0 CHG=-1
M  V30 14 C 3.8971 -3.0 0.0 0
M  V30 15 C 7.7942 -5.25 0.0 0
M  V30 16 C 3.8971 -4.5 0.0 0
M  V30 17 C 7.7942 -6.75 0.0 0 CFG=1
M  V30 18 O 5.1961 -5.25 0.0 0
M  V30 19 O 2.598 -5.25 0.0 0 CHG=-1
M  V30 20 C 9.0932 -7.5 0.0 0
M  V30 21 C 6.4951 -7.4999 0.0 0
M  V30 22 C 10.3923 -6.75 0.0 0
M  V30 23 C 6.4951 -9.0 0.0 0
M  V30 24 C 11.6913 -6.0 0.0 0
M  V30 25 N 5.1961 -9.7499 0.0 0
M  V30 26 C 7.7942 -9.75 0.0 0
M  V30 27 C 5.1961 -11.2499 0.0 0
M  V30 28 N 7.7942 -11.25 0.0 0
M  V30 29 C 6.4951 -12.0 0.0 0
M  V30 30 C 3.8971 -11.9999 0.0 0
M  V30 31 N 6.4951 -13.5 0.0 0
M  V30 32 N 3.8971 -13.4999 0.0 0
M  V30 33 N 2.598 -11.2499 0.0 0
M  V30 34 C 5.1961 -14.2499 0.0 0
M  V30 35 N 5.1961 -15.7499 0.0 0
M  V30 END ATOM
M  V30 BEGIN BOND
M  V30 1 2 1 2
M  V30 2 1 2 3
M  V30 3 1 2 4
M  V30 4 1 5 3 CFG=1
M  V30 5 2 4 6
M  V30 6 1 4 7
M  V30 7 1 5 8
M  V30 8 1 5 9
M  V30 9 1 6 10
M  V30 10 2 7 11
M  V30 11 2 8 12
M  V30 12 1 8 13
M  V30 13 1 9 14
M  V30 14 2 10 15
M  V30 15 1 14 16
M  V30 16 1 17 15
M  V30 17 2 16 18
M  V30 18 1 16 19
M  V30 19 1 17 20 CFG=1
M  V30 20 1 17 21
M  V30 21 1 20 22
M  V30 22 1 21 23
M  V30 23 3 22 24
M  V30 24 2 23 25
M  V30 25 1 23 26
M  V30 26 1 25 27
M  V30 27 2 26 28
M  V30 28 1 27 29
M  V30 29 2 27 30
M  V30 30 2 29 31
M  V30 31 1 30 32
M  V30 32 1 30 33
M  V30 33 1 31 34
M  V30 34 1 34 35
M  V30 35 1 11 15
M  V30 36 1 28 29
M  V30 37 2 32 34
M  V30 END BOND
M  V30 BEGIN COLLECTION
M  V30 MDLV30/STERAC1 ATOMS=(2 5 17)
M  V30 END COLLECTION
M  V30 END CTAB
M  END
>  <Molecule Name>


>  <status>
-

>  <cas>
146464-95-1

>  <name>
PRALATREXATE

>  <ID>
1481

>  <Smiles>
C#CC[C@@H](Cc1nc2c(N)nc(N)nc2nc1)c(cc1)ccc1C(N[C@@H](CCC([O-])=O)C([O-])=O)=O

$$$$
Molecule-1
Actelion Java MolfileCreator 2.0

  0  0  0  0  0  0              0 V3000
M  V30 BEGIN CTAB
M  V30 COUNTS 31 34 0 0 0
M  V30 BEGIN ATOM
M  V30 1 S 2.598 -3.0 0.0 0
M  V30 2 O 1.598 -3.0 0.0 0
M  V30 3 O 3.598 -2.9999 0.0 0
M  V30 4 N 2.598 -4.0 0.0 0
M  V30 5 C 2.598 -1.9999 0.0 0
M  V30 6 C 3.4641 -1.5 0.0 0
M  V30 7 C 1.732 -1.5 0.0 0
M  V30 8 C 3.4641 -0.5 0.0 0
M  V30 9 C 4.3301 -2.0 0.0 0
M  V30 10 C 1.732 -0.5 0.0 0
M  V30 11 C 2.598 0.0 0.0 0
M  V30 12 N 0.866 0.0 0.0 0
M  V30 13 C 0.0 -0.5 0.0 0
M  V30 14 N -0.866 0.0 0.0 0
M  V30 15 N 0.0 -1.4999 0.0 0
M  V30 16 C -1.732 -0.4999 0.0 0
M  V30 17 C -0.866 -1.9999 0.0 0
M  V30 18 N -2.598 0.0 0.0 0
M  V30 19 C -1.732 -1.4999 0.0 0
M  V30 20 C -2.598 1.0 0.0 0
M  V30 21 C -3.4641 -0.4999 0.0 0
M  V30 22 C -1.732 1.5 0.0 0
M  V30 23 C -3.4641 1.5 0.0 0
M  V30 24 C -1.732 2.5 0.0 0
M  V30 25 C -3.4641 2.5 0.0 0
M  V30 26 N -0.9889 3.1691 0.0 0
M  V30 27 C -2.598 3.0 0.0 0
M  V30 28 N -1.3956 4.0826 0.0 0
M  V30 29 C -2.3901 3.9781 0.0 0
M  V30 30 C -0.8956 4.9487 0.0 0
M  V30 31 C -3.0592 4.7212 0.0 0
M  V30 END ATOM
M  V30 BEGIN BOND
M  V30 1 2 1 2
M  V30 2 2 1 3
M  V30 3 1 1 4
M  V30 4 1 1 5
M  V30 5 2 5 6
M  V30 6 1 5 7
M  V30 7 1 6 8
M  V30 8 1 6 9
M  V30 9 2 7 10
M  V30 10 2 8 11
M  V30 11 1 10 12
M  V30 12 1 12 13
M  V30 13 2 13 14
M  V30 14 1 13 15
M  V30 15 1 14 16
M  V30 16 2 15 17
M  V30 17 1 16 18
M  V30 18 2 16 19
M  V30 19 1 18 20
M  V30 20 1 18 21
M  V30 21 2 20 22
M  V30 22 1 20 23
M  V30 23 1 22 24
M  V30 24 2 23 25
M  V30 25 2 24 26
M  V30 26 1 24 27
M  V30 27 1 26 28
M  V30 28 2 27 29
M  V30 29 1 28 30
M  V30 30 1 29 31
M  V30 31 1 10 11
M  V30 32 1 17 19
M  V30 33 1 25 27
M  V30 34 1 28 29
M  V30 END BOND
M  V30 END CTAB
M  END
>  <Molecule Name>
Molecule-1

>  <status>
-

>  <cas>
444731-52-6

>  <name>
PAZOPANIB

>  <ID>
1482

>  <Smiles>
Cc1c(ccc(N(C)c2ccnc(Nc3cc(S(N)(=O)=O)c(C)cc3)n2)c2)c2nn1C

$$$$

Actelion Java MolfileCreator 2.0

  0  0  0  0  0  0              0 V3000
M  V30 BEGIN CTAB
M  V30 COUNTS 36 37 0 0 0
M  V30 BEGIN ATOM
M  V30 1 S 7.7564 -2.6927 0.0 0
M  V30 2 S 7.1407 -3.4807 0.0 0
M  V30 3 C 4.2028 1.3915 0.0 0
M  V30 4 C 6.1432 -3.4109 0.0 0
M  V30 5 C 3.2416 1.6672 0.0 0 CFG=1
M  V30 6 C 5.6432 -4.2769 0.0 0
M  V30 7 N 2.6214 0.8398 0.0 0
M  V30 8 C 1.1863 0.0195 0.0 0
M  V30 9 C 4.6456 -4.3467 0.0 0
M  V30 10 C 2.58 0.0299 0.0 0
M  V30 11 O 1.4515 -0.9402 0.0 0
M  V30 12 N 0.057 -0.1002 0.0 0
M  V30 13 C 4.03 -3.5587 0.0 0
M  V30 14 O 3.4788 -0.4084 0.0 0
M  V30 15 C 1.7862 -0.485 0.0 0 CFG=2
M  V30 16 C -0.2537 -1.1034 0.0 0
M  V30 17 C 3.0518 -3.7666 0.0 0 CFG=1
M  V30 18 N 1.7147 -1.487 0.0 0
M  V30 19 C 0.7729 0.0852 0.0 0
M  V30 20 C -1.2427 -1.252 0.0 0
M  V30 21 C 0.4846 -1.8283 0.0 0
M  V30 22 O 0.6265 -3.5984 0.0 0
M  V30 23 C 2.3325 -3.0719 0.0 0
M  V30 24 C 2.5061 -2.0871 0.0 0
M  V30 25 C 0.866 1.0 0.0 0
M  V30 26 C 0.1002 -0.5807 0.0 0
M  V30 27 O -1.8657 -0.4698 0.0 0
M  V30 28 N -1.6085 -2.1827 0.0 0
M  V30 29 C 1.3229 -1.7617 0.0 0
M  V30 30 C 0.0034 -2.8163 0.0 0
M  V30 31 O 3.4333 -1.7125 0.0 0
M  V30 32 C -0.9854 -2.9648 0.0 0 CFG=2
M  V30 33 O 0.1522 -1.9933 0.0 0
M  V30 34 C -1.3512 -3.8955 0.0 0
M  V30 35 C -2.3401 -4.044 0.0 0
M  V30 36 C -0.7281 -4.6776 0.0 0
M  V30 END ATOM
M  V30 BEGIN BOND
M  V30 1 1 1 2
M  V30 2 1 1 3
M  V30 3 1 2 4
M  V30 4 1 5 3
M  V30 5 1 4 6
M  V30 6 1 5 7 CFG=3
M  V30 7 1 5 8
M  V30 8 1 6 9
M  V30 9 1 7 10
M  V30 10 2 8 11
M  V30 11 1 8 12
M  V30 12 2 9 13
M  V30 13 2 10 14
M  V30 14 1 15 10
M  V30 15 1 12 16
M  V30 16 1 17 13
M  V30 17 1 15 18
M  V30 18 1 15 19 CFG=3
M  V30 19 1 16 20
M  V30 20 2 16 21
M  V30 21 1 17 22 CFG=1
M  V30 22 1 17 23
M  V30 23 1 18 24
M  V30 24 1 19 25
M  V30 25 1 19 26
M  V30 26 2 20 27
M  V30 27 1 20 28
M  V30 28 1 21 29
M  V30 29 1 22 30
M  V30 30 2 24 31
M  V30 31 1 32 28
M  V30 32 2 30 33
M  V30 33 1 32 34 CFG=3
M  V30 34 1 34 35
M  V30 35 1 34 36
M  V30 36 1 23 24
M  V30 37 1 30 32
M  V30 END BOND
M  V30 BEGIN COLLECTION
M  V30 MDLV30/STERAC1 ATOMS=(4 5 15 17 32)
M  V30 END COLLECTION
M  V30 END CTAB
M  END
>  <Molecule Name>


>  <status>
-

>  <cas>
128517-07-7

>  <name>
ROMIDEPSIN

>  <ID>
1483

>  <Smiles>
CC(C)[C@H](C(N[C@H](CSSCC/C=C/[C@H](C1)OC([C@H](C(C)C)NC(/C(/N2)=C/C)=O)=O)C2=O)=O)NC1=O

$$$$

Actelion Java MolfileCreator 2.0

  0  0  0  0  0  0              0 V3000
M  V30 BEGIN CTAB
M  V30 COUNTS 7 7 0 0 0
M  V30 BEGIN ATOM
M  V30 1 N 3.8971 1.4999 0.0 0
M  V30 2 C 2.598 2.2499 0.0 0
M  V30 3 C 3.8971 0.0 0.0 0
M  V30 4 C 1.299 1.5 0.0 0
M  V30 5 C 2.598 -0.75 0.0 0
M  V30 6 C 1.299 0.0 0.0 0
M  V30 7 N 0.0 -0.75 0.0 0
M  V30 END ATOM
M  V30 BEGIN BOND
M  V30 1 2 1 2
M  V30 2 1 1 3
M  V30 3 1 2 4
M  V30 4 2 3 5
M  V30 5 2 4 6
M  V30 6 1 6 7
M  V30 7 1 5 6
M  V30 END BOND
M  V30 END CTAB
M  END
>  <Molecule Name>


>  <status>
-

>  <cas>
504-24-5

>  <name>
DALFAMPRIDINE

>  <ID>
1484

>  <Smiles>
Nc1ccncc1

$$$$

Actelion Java MolfileCreator 2.0

  0  0  0  0  0  0              0 V3000
M  V30 BEGIN CTAB
M  V30 COUNTS 13 12 0 0 0
M  V30 BEGIN ATOM
M  V30 1 O 9.0932 0.0 0.0 0
M  V30 2 C 7.7942 -0.75 0.0 0
M  V30 3 N 6.4951 0.0 0.0 0
M  V30 4 N 7.7942 -2.25 0.0 0
M  V30 5 C 5.1961 -0.75 0.0 0 CFG=2
M  V30 6 C 5.1961 -2.25 0.0 0
M  V30 7 C 3.8971 0.0 0.0 0
M  V30 8 O 3.8971 -2.9999 0.0 0
M  V30 9 O 6.4951 -3.0 0.0 0 CHG=-1
M  V30 10 C 2.598 -0.75 0.0 0
M  V30 11 C 1.299 0.0 0.0 0
M  V30 12 O 1.299 1.5 0.0 0
M  V30 13 O 0.0 -0.75 0.0 0 CHG=-1
M  V30 END ATOM
M  V30 BEGIN BOND
M  V30 1 2 1 2
M  V30 2 1 2 3
M  V30 3 1 2 4
M  V30 4 1 5 3 CFG=3
M  V30 5 1 5 6
M  V30 6 1 5 7
M  V30 7 2 6 8
M  V30 8 1 6 9
M  V30 9 1 7 10
M  V30 10 1 10 11
M  V30 11 2 11 12
M  V30 12 1 11 13
M  V30 END BOND
M  V30 BEGIN COLLECTION
M  V30 MDLV30/STERAC1 ATOMS=(1 5)
M  V30 END COLLECTION
M  V30 END CTAB
M  END
>  <Molecule Name>


>  <status>
-

>  <cas>
1188-38-1

>  <name>
CARGLUMIC ACID

>  <ID>
1485

>  <Smiles>
NC(NC(CCC([O-])=O)C([O-])=O)=O

$$$$

Actelion Java MolfileCreator 2.0

  0  0  0  0  0  0              0 V3000
M  V30 BEGIN CTAB
M  V30 COUNTS 22 23 0 0 0
M  V30 BEGIN ATOM
M  V30 1 Cl 9.0932 -9.0 0.0 0
M  V30 2 C 9.0932 -7.5 0.0 0
M  V30 3 C 10.3923 -6.75 0.0 0
M  V30 4 C 7.7942 -6.75 0.0 0
M  V30 5 C 10.3923 -5.25 0.0 0
M  V30 6 C 7.7942 -5.25 0.0 0
M  V30 7 C 9.0932 -4.5 0.0 0
M  V30 8 C 9.0932 -3.0 0.0 0
M  V30 9 O 10.3923 -2.25 0.0 0
M  V30 10 C 7.7942 -2.25 0.0 0
M  V30 11 C 7.7942 -0.75 0.0 0
M  V30 12 C 6.4952 -3.0 0.0 0
M  V30 13 C 6.4952 0.0 0.0 0
M  V30 14 C 5.1961 -2.25 0.0 0
M  V30 15 C 5.1961 -0.75 0.0 0
M  V30 16 O 3.8971 0.0 0.0 0
M  V30 17 C 2.598 -0.75 0.0 0
M  V30 18 C 1.299 0.0 0.0 0
M  V30 19 C 1.848 -2.049 0.0 0
M  V30 20 C 3.348 -2.049 0.0 0
M  V30 21 O 1.299 1.5 0.0 0
M  V30 22 O 0.0 -0.75 0.0 0 CHG=-1
M  V30 END ATOM
M  V30 BEGIN BOND
M  V30 1 1 1 2
M  V30 2 2 2 3
M  V30 3 1 2 4
M  V30 4 1 3 5
M  V30 5 2 4 6
M  V30 6 2 5 7
M  V30 7 1 7 8
M  V30 8 2 8 9
M  V30 9 1 8 10
M  V30 10 2 10 11
M  V30 11 1 10 12
M  V30 12 1 11 13
M  V30 13 2 12 14
M  V30 14 2 13 15
M  V30 15 1 15 16
M  V30 16 1 16 17
M  V30 17 1 17 18
M  V30 18 1 17 19
M  V30 19 1 17 20
M  V30 20 2 18 21
M  V30 21 1 18 22
M  V30 22 1 6 7
M  V30 23 1 14 15
M  V30 END BOND
M  V30 END CTAB
M  END
>  <Molecule Name>


>  <status>
-

>  <cas>
42017-89-0

>  <name>
FENOFIBRIC ACID

>  <ID>
1486

>  <Smiles>
CC(C)(C([O-])=O)Oc(cc1)ccc1C(c(cc1)ccc1Cl)=O

$$$$

Actelion Java MolfileCreator 2.0

  0  0  0  0  0  0              0 V3000
M  V30 BEGIN CTAB
M  V30 COUNTS 48 52 0 0 0
M  V30 BEGIN ATOM
M  V30 1 F 22.6822 -8.8476 0.0 0
M  V30 2 C 22.3731 -7.8966 0.0 0
M  V30 3 C 23.0423 -7.1534 0.0 0
M  V30 4 C 21.395 -7.6887 0.0 0
M  V30 5 C 22.7333 -6.2024 0.0 0
M  V30 6 C 21.086 -6.7376 0.0 0
M  V30 7 O 23.2333 -5.3364 0.0 0
M  V30 8 C 21.7551 -5.9945 0.0 0
M  V30 9 N 22.5641 -4.5932 0.0 0
M  V30 10 C 21.6506 -5.0 0.0 0
M  V30 11 C 20.7846 -4.5 0.0 0
M  V30 12 C 20.7846 -3.5 0.0 0
M  V30 13 C 19.9185 -5.0 0.0 0
M  V30 14 C 19.9185 -3.0 0.0 0
M  V30 15 C 19.0525 -4.5 0.0 0
M  V30 16 N 19.0525 -3.5 0.0 0
M  V30 17 C 18.1865 -3.0 0.0 0
M  V30 18 C 18.1865 -2.0 0.0 0
M  V30 19 C 17.3205 -1.5 0.0 0
M  V30 20 C 17.3205 -0.5 0.0 0
M  V30 21 C 16.4544 -2.0 0.0 0
M  V30 22 O 18.1865 0.0 0.0 0
M  V30 23 N 16.4544 0.0 0.0 0
M  V30 24 N 15.5884 -1.5 0.0 0
M  V30 25 C 16.4544 -3.0 0.0 0
M  V30 26 C 15.5884 -0.5 0.0 0
M  V30 27 C 16.4544 0.9999 0.0 0
M  V30 28 C 14.7224 0.0 0.0 0 CFG=1
M  V30 29 C 15.5884 1.4999 0.0 0
M  V30 30 O 13.8564 -0.5 0.0 0
M  V30 31 C 14.7224 0.9999 0.0 0
M  V30 32 C 12.9903 0.0 0.0 0
M  V30 33 O 12.9903 1.0 0.0 0
M  V30 34 C 12.1243 -0.5 0.0 0
M  V30 35 C 11.2583 0.0 0.0 0
M  V30 36 C 10.3923 -0.5 0.0 0
M  V30 37 C 9.5262 0.0 0.0 0
M  V30 38 C 8.6602 -0.5 0.0 0
M  V30 39 C 7.7942 0.0 0.0 0
M  V30 40 C 6.9282 -0.5 0.0 0
M  V30 41 C 6.0621 0.0 0.0 0
M  V30 42 C 5.1961 -0.5 0.0 0
M  V30 43 C 4.3301 0.0 0.0 0
M  V30 44 C 3.4641 -0.5 0.0 0
M  V30 45 C 2.598 0.0 0.0 0
M  V30 46 C 1.732 -0.5 0.0 0
M  V30 47 C 0.866 0.0 0.0 0
M  V30 48 C 0.0 -0.5 0.0 0
M  V30 END ATOM
M  V30 BEGIN BOND
M  V30 1 1 1 2
M  V30 2 2 2 3
M  V30 3 1 2 4
M  V30 4 1 3 5
M  V30 5 2 4 6
M  V30 6 1 5 7
M  V30 7 2 5 8
M  V30 8 1 7 9
M  V30 9 1 8 10
M  V30 10 1 10 11
M  V30 11 1 11 12
M  V30 12 1 11 13
M  V30 13 1 12 14
M  V30 14 1 13 15
M  V30 15 1 14 16
M  V30 16 1 16 17
M  V30 17 1 17 18
M  V30 18 1 18 19
M  V30 19 1 19 20
M  V30 20 2 19 21
M  V30 21 2 20 22
M  V30 22 1 20 23
M  V30 23 1 21 24
M  V30 24 1 21 25
M  V30 25 1 23 26
M  V30 26 1 23 27
M  V30 27 1 28 26
M  V30 28 1 27 29
M  V30 29 1 28 30 CFG=1
M  V30 30 1 28 31
M  V30 31 1 30 32
M  V30 32 2 32 33
M  V30 33 1 32 34
M  V30 34 1 34 35
M  V30 35 1 35 36
M  V30 36 1 36 37
M  V30 37 1 37 38
M  V30 38 1 38 39
M  V30 39 1 39 40
M  V30 40 1 40 41
M  V30 41 1 41 42
M  V30 42 1 42 43
M  V30 43 1 43 44
M  V30 44 1 44 45
M  V30 45 1 45 46
M  V30 46 1 46 47
M  V30 47 1 47 48
M  V30 48 1 6 8
M  V30 49 2 9 10
M  V30 50 1 15 16
M  V30 51 2 24 26
M  V30 52 1 29 31
M  V30 END BOND
M  V30 BEGIN COLLECTION
M  V30 MDLV30/STERAC1 ATOMS=(1 28)
M  V30 END COLLECTION
M  V30 END CTAB
M  END
>  <Molecule Name>


>  <status>
-

>  <cas>
199739-10-1

>  <name>
PALIPERIDONE PALMITATE

>  <ID>
1487

>  <Smiles>
CCCCCCCCCCCCCCCC(OC(CCCN12)C2=NC(C)=C(CCN(CC2)CCC2c2noc3c2ccc(F)c3)C1=O)=O

$$$$

Actelion Java MolfileCreator 2.0

  0  0  0  0  0  0              0 V3000
M  V30 BEGIN CTAB
M  V30 COUNTS 48 52 0 0 0
M  V30 BEGIN ATOM
M  V30 1 F 22.6822 -8.8476 0.0 0
M  V30 2 C 22.3731 -7.8966 0.0 0
M  V30 3 C 23.0423 -7.1534 0.0 0
M  V30 4 C 21.395 -7.6887 0.0 0
M  V30 5 C 22.7333 -6.2024 0.0 0
M  V30 6 C 21.086 -6.7376 0.0 0
M  V30 7 O 23.2333 -5.3364 0.0 0
M  V30 8 C 21.7551 -5.9945 0.0 0
M  V30 9 N 22.5641 -4.5932 0.0 0
M  V30 10 C 21.6506 -5.0 0.0 0
M  V30 11 C 20.7846 -4.5 0.0 0
M  V30 12 C 20.7846 -3.5 0.0 0
M  V30 13 C 19.9185 -5.0 0.0 0
M  V30 14 C 19.9185 -3.0 0.0 0
M  V30 15 C 19.0525 -4.5 0.0 0
M  V30 16 N 19.0525 -3.5 0.0 0
M  V30 17 C 18.1865 -3.0 0.0 0
M  V30 18 C 18.1865 -2.0 0.0 0
M  V30 19 C 17.3205 -1.5 0.0 0
M  V30 20 C 17.3205 -0.5 0.0 0
M  V30 21 C 16.4544 -2.0 0.0 0
M  V30 22 O 18.1865 0.0 0.0 0
M  V30 23 N 16.4544 0.0 0.0 0
M  V30 24 N 15.5884 -1.5 0.0 0
M  V30 25 C 16.4544 -3.0 0.0 0
M  V30 26 C 15.5884 -0.5 0.0 0
M  V30 27 C 16.4544 0.9999 0.0 0
M  V30 28 C 14.7224 0.0 0.0 0 CFG=1
M  V30 29 C 15.5884 1.4999 0.0 0
M  V30 30 O 13.8564 -0.5 0.0 0
M  V30 31 C 14.7224 0.9999 0.0 0
M  V30 32 C 12.9903 0.0 0.0 0
M  V30 33 O 12.9903 1.0 0.0 0
M  V30 34 C 12.1243 -0.5 0.0 0
M  V30 35 C 11.2583 0.0 0.0 0
M  V30 36 C 10.3923 -0.5 0.0 0
M  V30 37 C 9.5262 0.0 0.0 0
M  V30 38 C 8.6602 -0.5 0.0 0
M  V30 39 C 7.7942 0.0 0.0 0
M  V30 40 C 6.9282 -0.5 0.0 0
M  V30 41 C 6.0621 0.0 0.0 0
M  V30 42 C 5.1961 -0.5 0.0 0
M  V30 43 C 4.3301 0.0 0.0 0
M  V30 44 C 3.4641 -0.5 0.0 0
M  V30 45 C 2.598 0.0 0.0 0
M  V30 46 C 1.732 -0.5 0.0 0
M  V30 47 C 0.866 0.0 0.0 0
M  V30 48 C 0.0 -0.5 0.0 0
M  V30 END ATOM
M  V30 BEGIN BOND
M  V30 1 1 1 2
M  V30 2 2 2 3
M  V30 3 1 2 4
M  V30 4 1 3 5
M  V30 5 2 4 6
M  V30 6 1 5 7
M  V30 7 2 5 8
M  V30 8 1 7 9
M  V30 9 1 8 10
M  V30 10 1 10 11
M  V30 11 1 11 12
M  V30 12 1 11 13
M  V30 13 1 12 14
M  V30 14 1 13 15
M  V30 15 1 14 16
M  V30 16 1 16 17
M  V30 17 1 17 18
M  V30 18 1 18 19
M  V30 19 1 19 20
M  V30 20 2 19 21
M  V30 21 2 20 22
M  V30 22 1 20 23
M  V30 23 1 21 24
M  V30 24 1 21 25
M  V30 25 1 23 26
M  V30 26 1 23 27
M  V30 27 1 28 26
M  V30 28 1 27 29
M  V30 29 1 28 30 CFG=1
M  V30 30 1 28 31
M  V30 31 1 30 32
M  V30 32 2 32 33
M  V30 33 1 32 34
M  V30 34 1 34 35
M  V30 35 1 35 36
M  V30 36 1 36 37
M  V30 37 1 37 38
M  V30 38 1 38 39
M  V30 39 1 39 40
M  V30 40 1 40 41
M  V30 41 1 41 42
M  V30 42 1 42 43
M  V30 43 1 43 44
M  V30 44 1 44 45
M  V30 45 1 45 46
M  V30 46 1 46 47
M  V30 47 1 47 48
M  V30 48 1 6 8
M  V30 49 2 9 10
M  V30 50 1 15 16
M  V30 51 2 24 26
M  V30 52 1 29 31
M  V30 END BOND
M  V30 BEGIN COLLECTION
M  V30 MDLV30/STERAC1 ATOMS=(1 28)
M  V30 END COLLECTION
M  V30 END CTAB
M  END
>  <Molecule Name>


>  <status>
-

>  <cas>
199739-10-1

>  <name>
PALIPERIDONE PALMITATE

>  <ID>
1488

>  <Smiles>
CCCCCCCCCCCCCCCC(OC(CCCN12)C2=NC(C)=C(CCN(CC2)CCC2c2noc3c2ccc(F)c3)C1=O)=O

$$$$
_c001
Actelion Java MolfileCreator 2.0

  0  0  0  0  0  0              0 V3000
M  V30 BEGIN CTAB
M  V30 COUNTS 26 30 0 0 0
M  V30 BEGIN ATOM
M  V30 1 O 2.2397 8.9506 0.0 0
M  V30 2 C 2.083 7.4589 0.0 0 CFG=1
M  V30 3 C 3.2965 6.5772 0.0 0
M  V30 4 C 0.7126 6.8488 0.0 0
M  V30 5 C 3.1397 5.0854 0.0 0
M  V30 6 C 0.5558 5.357 0.0 0
M  V30 7 C 4.3532 4.2037 0.0 0
M  V30 8 C 1.7694 4.4753 0.0 0 CFG=1
M  V30 9 C 4.1964 2.7119 0.0 0
M  V30 10 C 1.6126 2.9835 0.0 0 CFG=1
M  V30 11 C 0.399 3.8652 0.0 0
M  V30 12 C 2.8261 2.1018 0.0 0 CFG=1
M  V30 13 C 0.2423 2.3734 0.0 0
M  V30 14 C 2.6693 0.6101 0.0 0 CFG=2
M  V30 15 C 0.0855 0.8816 0.0 0
M  V30 16 C 1.299 0.0 0.0 0 CFG=1
M  V30 17 C 3.673 -0.5046 0.0 0
M  V30 18 C 1.4558 -1.4917 0.0 0
M  V30 19 C 0.0 -0.75 0.0 0
M  V30 20 C 2.923 -1.8036 0.0 0
M  V30 21 C 0.3411 -2.4954 0.0 0
M  V30 22 C -1.0854 -2.0319 0.0 0
M  V30 23 C 0.6529 -3.9627 0.0 0
M  V30 24 N -2.2001 -3.0356 0.0 0
M  V30 25 C -0.4617 -4.9663 0.0 0
M  V30 26 C -1.8883 -4.5028 0.0 0
M  V30 END ATOM
M  V30 BEGIN BOND
M  V30 1 1 2 1 CFG=1
M  V30 2 1 2 3
M  V30 3 1 2 4
M  V30 4 1 3 5
M  V30 5 1 4 6
M  V30 6 2 5 7
M  V30 7 1 8 5
M  V30 8 1 7 9
M  V30 9 1 10 8
M  V30 10 1 8 11 CFG=1
M  V30 11 1 12 9 CFG=3
M  V30 12 1 10 13 CFG=1
M  V30 13 1 14 12
M  V30 14 1 13 15
M  V30 15 1 16 14
M  V30 16 1 14 17 CFG=1
M  V30 17 1 16 18
M  V30 18 1 16 19 CFG=1
M  V30 19 1 17 20
M  V30 20 1 18 21
M  V30 21 2 21 22
M  V30 22 1 21 23
M  V30 23 1 22 24
M  V30 24 2 23 25
M  V30 25 2 24 26
M  V30 26 1 6 8
M  V30 27 1 10 12
M  V30 28 1 15 16
M  V30 29 2 18 20
M  V30 30 1 25 26
M  V30 END BOND
M  V30 BEGIN COLLECTION
M  V30 MDLV30/STERAC1 ATOMS=(6 2 8 10 12 14 16)
M  V30 END COLLECTION
M  V30 END CTAB
M  END
>  <Molecule Name>
_c001

>  <status>
-

>  <cas>
154229-19-3

>  <name>
ABIRATERONE

>  <ID>
1489

>  <Smiles>
C[C@]1(CC2)C(c3cnccc3)=CC[C@@H]1[C@@H]1[C@@H]2[C@](C)(CC[C@H](C2)O)C2=CC1

$$$$

Actelion Java MolfileCreator 2.0

  0  0  0  0  0  0              0 V3000
M  V30 BEGIN CTAB
M  V30 COUNTS 22 22 0 0 0
M  V30 BEGIN ATOM
M  V30 1 O 10.3923 -2.25 0.0 0
M  V30 2 C 10.3923 -0.75 0.0 0
M  V30 3 N 11.6913 0.0 0.0 0
M  V30 4 C 9.0932 0.0 0.0 0
M  V30 5 C 12.9903 -0.75 0.0 0
M  V30 6 C 7.7942 -0.75 0.0 0
M  V30 7 C 14.2894 0.0 0.0 0
M  V30 8 C 6.4951 0.0 0.0 0
M  V30 9 C 15.5884 -0.75 0.0 0
M  V30 10 C 14.2894 1.4999 0.0 0
M  V30 11 C 5.1961 -0.75 0.0 0
M  V30 12 C 16.8874 0.0 0.0 0
M  V30 13 C 15.5884 2.2499 0.0 0
M  V30 14 C 3.8971 0.0 0.0 0
M  V30 15 O 18.1865 -0.75 0.0 0
M  V30 16 C 16.8874 1.4999 0.0 0
M  V30 17 C 2.598 -0.75 0.0 0
M  V30 18 C 19.4855 0.0 0.0 0
M  V30 19 O 18.1865 2.2499 0.0 0
M  V30 20 C 1.299 0.0 0.0 0
M  V30 21 C 1.299 1.5 0.0 0
M  V30 22 C 0.0 -0.75 0.0 0
M  V30 END ATOM
M  V30 BEGIN BOND
M  V30 1 2 1 2
M  V30 2 1 2 3
M  V30 3 1 2 4
M  V30 4 1 3 5
M  V30 5 1 4 6
M  V30 6 1 5 7
M  V30 7 1 6 8
M  V30 8 2 7 9
M  V30 9 1 7 10
M  V30 10 1 8 11
M  V30 11 1 9 12
M  V30 12 2 10 13
M  V30 13 1 11 14
M  V30 14 1 12 15
M  V30 15 2 12 16
M  V30 16 2 14 17
M  V30 17 1 15 18
M  V30 18 1 16 19
M  V30 19 1 17 20
M  V30 20 1 20 21
M  V30 21 1 20 22
M  V30 22 1 13 16
M  V30 END BOND
M  V30 END CTAB
M  END
>  <Molecule Name>


>  <status>
-

>  <cas>
404-86-4

>  <name>
CAPSAICIN

>  <ID>
1490

>  <Smiles>
CC(C)/C=C/CCCCC(NCc(cc1)cc(OC)c1O)=O

$$$$

Actelion Java MolfileCreator 2.0

  0  0  0  0  0  0              0 V3000
M  V30 BEGIN CTAB
M  V30 COUNTS 19 20 0 0 0
M  V30 BEGIN ATOM
M  V30 1 P 4.3301 0.0 0.0 0
M  V30 2 O 4.8301 -0.866 0.0 0
M  V30 3 O 5.1961 0.4999 0.0 0 CHG=-1
M  V30 4 O 3.8301 0.866 0.0 0 CHG=-1
M  V30 5 C 3.4641 -0.5 0.0 0
M  V30 6 O 2.598 0.0 0.0 0
M  V30 7 C 1.732 -0.5 0.0 0 CFG=2
M  V30 8 C 0.866 0.0 0.0 0
M  V30 9 C 1.732 -1.5 0.0 0
M  V30 10 N 0.0 -0.5 0.0 0
M  V30 11 C -0.9135 -0.0932 0.0 0
M  V30 12 C -0.1045 -1.4945 0.0 0
M  V30 13 N -1.2225 0.8577 0.0 0
M  V30 14 C -1.5826 -0.8364 0.0 0
M  V30 15 N -1.0826 -1.7024 0.0 0
M  V30 16 C -2.2007 1.0657 0.0 0
M  V30 17 C -2.5608 -0.6284 0.0 0
M  V30 18 N -2.8698 0.3225 0.0 0
M  V30 19 N -3.2299 -1.3716 0.0 0
M  V30 END ATOM
M  V30 BEGIN BOND
M  V30 1 2 1 2
M  V30 2 1 1 3
M  V30 3 1 1 4
M  V30 4 1 1 5
M  V30 5 1 5 6
M  V30 6 1 7 6 CFG=1
M  V30 7 1 7 8
M  V30 8 1 7 9
M  V30 9 1 8 10
M  V30 10 1 10 11
M  V30 11 1 10 12
M  V30 12 2 11 13
M  V30 13 1 11 14
M  V30 14 2 12 15
M  V30 15 1 13 16
M  V30 16 2 14 17
M  V30 17 2 16 18
M  V30 18 1 17 19
M  V30 19 1 14 15
M  V30 20 1 17 18
M  V30 END BOND
M  V30 BEGIN COLLECTION
M  V30 MDLV30/STERAC1 ATOMS=(1 7)
M  V30 END COLLECTION
M  V30 END CTAB
M  END
>  <Molecule Name>


>  <status>
-

>  <cas>
147127-20-6

>  <name>
TENOFOVIR

>  <ID>
1491

>  <Smiles>
CC(Cn1c2ncnc(N)c2nc1)OCP([O-])([O-])=O

$$$$

Actelion Java MolfileCreator 2.0

  0  0  0  0  0  0              0 V3000
M  V30 BEGIN CTAB
M  V30 COUNTS 32 35 0 0 0
M  V30 BEGIN ATOM
M  V30 1 Cl 8.9638 3.8181 0.0 0
M  V30 2 C 8.0082 3.5233 0.0 0
M  V30 3 C 7.2752 4.2035 0.0 0
M  V30 4 C 7.7857 2.5484 0.0 0
M  V30 5 C 6.3196 3.9088 0.0 0
M  V30 6 C 6.8301 2.2537 0.0 0
M  V30 7 C 6.0971 2.9338 0.0 0
M  V30 8 C 5.6961 4.6906 0.0 0 CFG=1
M  V30 9 N 5.1961 2.5 0.0 0
M  V30 10 O 6.13 5.5916 0.0 0
M  V30 11 C 4.6961 4.6906 0.0 0
M  V30 12 C 5.1961 1.5 0.0 0
M  V30 13 C 4.2951 2.9338 0.0 0
M  V30 14 C 4.0726 3.9088 0.0 0
M  V30 15 O 6.0621 1.0 0.0 0
M  V30 16 C 4.3301 1.0 0.0 0
M  V30 17 C 3.4641 1.5 0.0 0
M  V30 18 C 4.3301 0.0 0.0 0
M  V30 19 C 2.598 0.9999 0.0 0
M  V30 20 C 3.4641 2.5 0.0 0
M  V30 21 C 3.4641 -0.4999 0.0 0
M  V30 22 C 2.598 0.0 0.0 0
M  V30 23 N 1.732 -0.5 0.0 0
M  V30 24 C 0.866 0.0 0.0 0
M  V30 25 O 0.866 1.0 0.0 0
M  V30 26 C 0.0 -0.5 0.0 0
M  V30 27 C -0.866 0.0 0.0 0
M  V30 28 C 0.0 -1.4999 0.0 0
M  V30 29 C -1.732 -0.4999 0.0 0
M  V30 30 C -0.866 1.0 0.0 0
M  V30 31 C -0.866 -1.9999 0.0 0
M  V30 32 C -1.732 -1.4999 0.0 0
M  V30 END ATOM
M  V30 BEGIN BOND
M  V30 1 1 1 2
M  V30 2 2 2 3
M  V30 3 1 2 4
M  V30 4 1 3 5
M  V30 5 2 4 6
M  V30 6 2 5 7
M  V30 7 1 8 5
M  V30 8 1 7 9
M  V30 9 1 8 10 CFG=3
M  V30 10 1 8 11
M  V30 11 1 9 12
M  V30 12 1 9 13
M  V30 13 1 11 14
M  V30 14 2 12 15
M  V30 15 1 12 16
M  V30 16 2 16 17
M  V30 17 1 16 18
M  V30 18 1 17 19
M  V30 19 1 17 20
M  V30 20 2 18 21
M  V30 21 2 19 22
M  V30 22 1 22 23
M  V30 23 1 23 24
M  V30 24 2 24 25
M  V30 25 1 24 26
M  V30 26 2 26 27
M  V30 27 1 26 28
M  V30 28 1 27 29
M  V30 29 1 27 30
M  V30 30 2 28 31
M  V30 31 2 29 32
M  V30 32 1 6 7
M  V30 33 1 13 14
M  V30 34 1 21 22
M  V30 35 1 31 32
M  V30 END BOND
M  V30 BEGIN COLLECTION
M  V30 MDLV30/STERAC1 ATOMS=(1 8)
M  V30 END COLLECTION
M  V30 END CTAB
M  END
>  <Molecule Name>


>  <status>
-

>  <cas>
150683-30-0

>  <name>
TOLVAPTAN

>  <ID>
1492

>  <Smiles>
Cc(cccc1)c1C(Nc(cc1)cc(C)c1C(N(CCCC1O)c(cc2)c1cc2Cl)=O)=O

$$$$

Actelion Java MolfileCreator 2.0

  0  0  0  0  0  0              0 V3000
M  V30 BEGIN CTAB
M  V30 COUNTS 26 29 0 0 0
M  V30 BEGIN ATOM
M  V30 1 S 2.7026 0.9945 0.0 0
M  V30 2 C 2.598 0.0 0.0 0
M  V30 3 C 3.6807 1.2024 0.0 0
M  V30 4 O 1.732 -0.5 0.0 0
M  V30 5 C 3.5116 -0.4067 0.0 0
M  V30 6 C 4.1807 0.3364 0.0 0
M  V30 7 C 4.1807 2.0684 0.0 0
M  V30 8 C 0.866 0.0 0.0 0
M  V30 9 C 5.1807 0.3364 0.0 0
M  V30 10 C 5.1807 2.0684 0.0 0
M  V30 11 O 0.866 1.0 0.0 0
M  V30 12 C 0.0 -0.5 0.0 0
M  V30 13 N 5.6807 1.2024 0.0 0
M  V30 14 C 6.6807 1.2024 0.0 0 CFG=2
M  V30 15 C 7.1807 2.0684 0.0 0
M  V30 16 C 7.1807 0.3364 0.0 0
M  V30 17 C 6.6807 2.9344 0.0 0
M  V30 18 C 8.1807 2.0684 0.0 0
M  V30 19 O 6.6807 -0.5296 0.0 0
M  V30 20 C 8.1807 0.3364 0.0 0
M  V30 21 F 5.6807 2.9344 0.0 0
M  V30 22 C 7.1807 3.8005 0.0 0
M  V30 23 C 8.6807 2.9344 0.0 0
M  V30 24 C 9.0467 -0.1635 0.0 0
M  V30 25 C 9.0467 0.8364 0.0 0
M  V30 26 C 8.1807 3.8005 0.0 0
M  V30 END ATOM
M  V30 BEGIN BOND
M  V30 1 1 1 2
M  V30 2 1 1 3
M  V30 3 1 2 4
M  V30 4 2 2 5
M  V30 5 2 3 6
M  V30 6 1 3 7
M  V30 7 1 4 8
M  V30 8 1 6 9
M  V30 9 1 7 10
M  V30 10 2 8 11
M  V30 11 1 8 12
M  V30 12 1 9 13
M  V30 13 1 14 13 CFG=3
M  V30 14 1 14 15
M  V30 15 1 14 16
M  V30 16 2 15 17
M  V30 17 1 15 18
M  V30 18 2 16 19
M  V30 19 1 16 20
M  V30 20 1 17 21
M  V30 21 1 17 22
M  V30 22 2 18 23
M  V30 23 1 20 24
M  V30 24 1 20 25
M  V30 25 2 22 26
M  V30 26 1 5 6
M  V30 27 1 10 13
M  V30 28 1 23 26
M  V30 29 1 24 25
M  V30 END BOND
M  V30 BEGIN COLLECTION
M  V30 MDLV30/STERAC1 ATOMS=(1 14)
M  V30 END COLLECTION
M  V30 END CTAB
M  END
>  <Molecule Name>


>  <status>
-

>  <cas>
150322-43-3

>  <name>
PRASUGREL

>  <ID>
1493

>  <Smiles>
CC(Oc1cc(CN(CC2)C(C(C3CC3)=O)c(cccc3)c3F)c2s1)=O

$$$$

Actelion Java MolfileCreator 2.0

  0  0  0  0  0  0              0 V3000
M  V30 BEGIN CTAB
M  V30 COUNTS 9 8 0 0 0
M  V30 BEGIN ATOM
M  V30 1 O 5.1961 -0.5 0.0 0
M  V30 2 C 4.3301 0.0 0.0 0
M  V30 3 O 4.3301 1.0 0.0 0 CHG=-1
M  V30 4 C 3.4641 -0.5 0.0 0
M  V30 5 C 2.598 0.0 0.0 0
M  V30 6 C 1.732 -0.5 0.0 0 CFG=2
M  V30 7 N 1.732 -1.5 0.0 0
M  V30 8 C 0.866 0.0 0.0 0
M  V30 9 C 0.0 -0.5 0.0 0
M  V30 END ATOM
M  V30 BEGIN BOND
M  V30 1 2 1 2
M  V30 2 1 2 3
M  V30 3 1 2 4
M  V30 4 1 4 5
M  V30 5 1 6 5
M  V30 6 1 6 7 CFG=3
M  V30 7 1 6 8
M  V30 8 2 8 9
M  V30 END BOND
M  V30 BEGIN COLLECTION
M  V30 MDLV30/STERAC1 ATOMS=(1 6)
M  V30 END COLLECTION
M  V30 END CTAB
M  END
>  <Molecule Name>


>  <status>
-

>  <cas>
68506-86-5

>  <name>
VIGABATRIN

>  <ID>
1494

>  <Smiles>
C=CC(CCC([O-])=O)N

$$$$

Actelion Java MolfileCreator 2.0

  0  0  0  0  0  0              0 V3000
M  V30 BEGIN CTAB
M  V30 COUNTS 35 37 0 0 0
M  V30 BEGIN ATOM
M  V30 1 O 9.0932 0.0 0.0 0
M  V30 2 C 7.7942 -0.75 0.0 0
M  V30 3 N 6.4951 0.0 0.0 0
M  V30 4 C 7.7942 -2.25 0.0 0
M  V30 5 C 5.1961 -0.75 0.0 0 CFG=2
M  V30 6 C 6.4951 -2.9999 0.0 0
M  V30 7 C 9.0932 -3.0 0.0 0
M  V30 8 C 3.8971 0.0 0.0 0
M  V30 9 C 5.1961 -2.25 0.0 0
M  V30 10 C 6.4951 -4.5 0.0 0
M  V30 11 C 9.0932 -4.5 0.0 0
M  V30 12 O 2.598 -0.75 0.0 0
M  V30 13 O 3.8971 1.4999 0.0 0 CHG=-1
M  V30 14 C 3.8971 -3.0 0.0 0
M  V30 15 C 7.7942 -5.25 0.0 0
M  V30 16 C 3.8971 -4.5 0.0 0
M  V30 17 C 7.7942 -6.75 0.0 0 CFG=2
M  V30 18 O 5.1961 -5.25 0.0 0
M  V30 19 O 2.598 -5.25 0.0 0 CHG=-1
M  V30 20 C 9.0932 -7.5 0.0 0
M  V30 21 C 6.4951 -7.4999 0.0 0
M  V30 22 C 10.3923 -6.75 0.0 0
M  V30 23 C 6.4951 -9.0 0.0 0
M  V30 24 C 11.6913 -6.0 0.0 0
M  V30 25 N 5.1961 -9.7499 0.0 0
M  V30 26 C 7.7942 -9.75 0.0 0
M  V30 27 C 5.1961 -11.2499 0.0 0
M  V30 28 N 7.7942 -11.25 0.0 0
M  V30 29 C 6.4951 -12.0 0.0 0
M  V30 30 C 3.8971 -11.9999 0.0 0
M  V30 31 N 6.4951 -13.5 0.0 0
M  V30 32 N 3.8971 -13.4999 0.0 0
M  V30 33 N 2.598 -11.2499 0.0 0
M  V30 34 C 5.1961 -14.2499 0.0 0
M  V30 35 N 5.1961 -15.7499 0.0 0
M  V30 END ATOM
M  V30 BEGIN BOND
M  V30 1 2 1 2
M  V30 2 1 2 3
M  V30 3 1 2 4
M  V30 4 1 5 3 CFG=1
M  V30 5 2 4 6
M  V30 6 1 4 7
M  V30 7 1 5 8
M  V30 8 1 5 9
M  V30 9 1 6 10
M  V30 10 2 7 11
M  V30 11 2 8 12
M  V30 12 1 8 13
M  V30 13 1 9 14
M  V30 14 2 10 15
M  V30 15 1 14 16
M  V30 16 1 17 15
M  V30 17 2 16 18
M  V30 18 1 16 19
M  V30 19 1 17 20 CFG=3
M  V30 20 1 17 21
M  V30 21 1 20 22
M  V30 22 1 21 23
M  V30 23 3 22 24
M  V30 24 2 23 25
M  V30 25 1 23 26
M  V30 26 1 25 27
M  V30 27 2 26 28
M  V30 28 1 27 29
M  V30 29 2 27 30
M  V30 30 2 29 31
M  V30 31 1 30 32
M  V30 32 1 30 33
M  V30 33 1 31 34
M  V30 34 1 34 35
M  V30 35 1 11 15
M  V30 36 1 28 29
M  V30 37 2 32 34
M  V30 END BOND
M  V30 BEGIN COLLECTION
M  V30 MDLV30/STERAC1 ATOMS=(2 5 17)
M  V30 END COLLECTION
M  V30 END CTAB
M  END
>  <Molecule Name>


>  <status>
-

>  <cas>
146464-95-1

>  <name>
PRALATREXATE

>  <ID>
1495

>  <Smiles>
C#CC[C@H](Cc1nc2c(N)nc(N)nc2nc1)c(cc1)ccc1C(N[C@@H](CCC([O-])=O)C([O-])=O)=O

$$$$

Actelion Java MolfileCreator 2.0

  0  0  0  0  0  0              0 V3000
M  V30 BEGIN CTAB
M  V30 COUNTS 23 26 0 0 0
M  V30 BEGIN ATOM
M  V30 1 O 1.732 -0.5 0.0 0
M  V30 2 C 0.866 0.0 0.0 0
M  V30 3 C 0.0 -0.5 0.0 0
M  V30 4 N -0.9135 -0.0932 0.0 0
M  V30 5 C -0.1045 -1.4945 0.0 0
M  V30 6 C -1.5826 -0.8364 0.0 0
M  V30 7 C -1.0773 0.8932 0.0 0
M  V30 8 N -1.0826 -1.7024 0.0 0
M  V30 9 C -2.5808 -0.7766 0.0 0
M  V30 10 C -1.9507 1.3802 0.0 0
M  V30 11 C -3.1565 0.0411 0.0 0
M  V30 12 C -3.0678 -1.65 0.0 0
M  V30 13 C -2.876 1.0009 0.0 0
M  V30 14 C -4.1279 -0.1959 0.0 0
M  V30 15 C -4.0677 -1.6649 0.0 0
M  V30 16 C -2.5549 -2.5084 0.0 0
M  V30 17 C -3.5671 1.7237 0.0 0
M  V30 18 C -4.819 0.5268 0.0 0
M  V30 19 C -4.5547 -2.5383 0.0 0
M  V30 20 C -3.0419 -3.3818 0.0 0
M  V30 21 C -4.5386 1.4867 0.0 0
M  V30 22 N -4.0418 -3.3968 0.0 0
M  V30 23 C -4.5288 -4.2702 0.0 0
M  V30 END ATOM
M  V30 BEGIN BOND
M  V30 1 2 1 2
M  V30 2 1 2 3
M  V30 3 1 3 4
M  V30 4 2 3 5
M  V30 5 1 4 6
M  V30 6 1 4 7
M  V30 7 1 5 8
M  V30 8 1 6 9
M  V30 9 1 7 10
M  V30 10 1 9 11
M  V30 11 2 9 12
M  V30 12 1 10 13
M  V30 13 1 11 14
M  V30 14 1 12 15
M  V30 15 1 12 16
M  V30 16 1 13 17
M  V30 17 2 14 18
M  V30 18 1 15 19
M  V30 19 1 16 20
M  V30 20 2 17 21
M  V30 21 1 19 22
M  V30 22 1 22 23
M  V30 23 2 6 8
M  V30 24 2 11 13
M  V30 25 1 18 21
M  V30 26 1 20 22
M  V30 END BOND
M  V30 END CTAB
M  END
>  <Molecule Name>


>  <status>
-

>  <cas>
147084-10-4

>  <name>
ALCAFTADINE

>  <ID>
1496

>  <Smiles>
CN(CC1)CCC1=C(c1ncc(C=O)n1CC1)c2c1cccc2

$$$$

Actelion Java MolfileCreator 2.0

  0  0  0  0  0  0              0 V3000
M  V30 BEGIN CTAB
M  V30 COUNTS 23 26 0 0 0
M  V30 BEGIN ATOM
M  V30 1 O 2.2495 8.9898 0.0 0
M  V30 2 C 2.0921 7.4915 0.0 0
M  V30 3 C 3.3109 6.6059 0.0 0
M  V30 4 C 0.7157 6.8787 0.0 0
M  V30 5 C 3.1534 5.1076 0.0 0
M  V30 6 C 0.5583 5.3804 0.0 0
M  V30 7 C 1.7771 4.4949 0.0 0
M  V30 8 C 4.3722 4.2221 0.0 0
M  V30 9 C 1.6196 2.9966 0.0 0
M  V30 10 C 4.2148 2.7238 0.0 0
M  V30 11 C 2.8385 2.111 0.0 0 CFG=1
M  V30 12 C 0.2433 2.3838 0.0 0
M  V30 13 C 2.681 0.6127 0.0 0 CFG=1
M  V30 14 C 0.0858 0.8855 0.0 0
M  V30 15 C 1.3047 0.0 0.0 0 CFG=2
M  V30 16 C 3.6891 -0.5068 0.0 0
M  V30 17 C 1.4621 -1.4983 0.0 0 CFG=2
M  V30 18 C -0.0708 -0.4923 0.0 0
M  V30 19 C 2.9358 -1.8115 0.0 0
M  V30 20 O 0.3426 -2.5063 0.0 0
M  V30 21 C 0.0911 -1.0888 0.0 0
M  V30 22 C -1.1151 -1.9065 0.0 0
M  V30 23 N -2.2859 -2.8546 0.0 0
M  V30 END ATOM
M  V30 BEGIN BOND
M  V30 1 2 1 2
M  V30 2 1 2 3
M  V30 3 1 2 4
M  V30 4 2 3 5
M  V30 5 1 4 6
M  V30 6 1 5 7
M  V30 7 1 5 8
M  V30 8 2 7 9
M  V30 9 1 8 10
M  V30 10 1 11 9
M  V30 11 1 9 12
M  V30 12 1 13 11
M  V30 13 1 12 14
M  V30 14 1 15 13
M  V30 15 1 13 16 CFG=3
M  V30 16 1 17 15
M  V30 17 1 15 18 CFG=3
M  V30 18 1 16 19
M  V30 19 1 17 20 CFG=3
M  V30 20 1 17 21
M  V30 21 1 21 22
M  V30 22 3 22 23
M  V30 23 1 6 7
M  V30 24 1 11 10 CFG=1
M  V30 25 1 14 15
M  V30 26 1 17 19
M  V30 END BOND
M  V30 BEGIN COLLECTION
M  V30 MDLV30/STERAC1 ATOMS=(4 11 13 15 17)
M  V30 END COLLECTION
M  V30 END CTAB
M  END
>  <Molecule Name>


>  <status>
-

>  <cas>
65928-58-7

>  <name>
DIENOGEST

>  <ID>
1497

>  <Smiles>
C[C@](CC1)([C@@H](CC2)[C@H](CC3)C1=C(CC1)C3=CC1=O)[C@@]2(CC#N)O

$$$$

Actelion Java MolfileCreator 2.0

  0  0  0  0  0  0              0 V3000
M  V30 BEGIN CTAB
M  V30 COUNTS 35 39 0 0 0
M  V30 BEGIN ATOM
M  V30 1 O -2.9411 -10.8129 0.0 0
M  V30 2 C -2.477 -9.3848 0.0 0
M  V30 3 C -3.4818 -8.2689 0.0 0
M  V30 4 C -1.0082 -9.0726 0.0 0
M  V30 5 C -3.0178 -6.8407 0.0 0
M  V30 6 C -0.5442 -7.6444 0.0 0
M  V30 7 C -1.549 -6.5285 0.0 0
M  V30 8 C -4.0226 -5.7248 0.0 0
M  V30 9 C -1.085 -5.1004 0.0 0
M  V30 10 C -3.5585 -4.2967 0.0 0
M  V30 11 C 0.3837 -4.7882 0.0 0 CFG=2
M  V30 12 C -2.0897 -3.9845 0.0 0 CFG=2
M  V30 13 C 1.3885 -5.9041 0.0 0
M  V30 14 C 0.7899 -3.4108 0.0 0
M  V30 15 C -1.6257 -2.5564 0.0 0 CFG=2
M  V30 16 C 0.9245 -7.3322 0.0 0
M  V30 17 C 2.8573 -5.5919 0.0 0
M  V30 18 C -0.1569 -2.2442 0.0 0 CFG=2
M  V30 19 C -2.3765 -1.2559 0.0 0
M  V30 20 C 1.9293 -8.4482 0.0 0
M  V30 21 C 3.8621 -6.7078 0.0 0
M  V30 22 C 0.0 -0.7508 0.0 0 CFG=2
M  V30 23 C 1.4052 -1.9562 0.0 0
M  V30 24 C -1.3717 -0.14 0.0 0
M  V30 25 C 3.3981 -8.136 0.0 0
M  V30 26 O 1.3004 0.0 0.0 0
M  V30 27 C 1.2282 -1.3998 0.0 0
M  V30 28 N 4.4029 -9.2519 0.0 0
M  V30 29 C 1.3004 1.5016 0.0 0
M  V30 30 O 1.2965 -2.9666 0.0 0
M  V30 31 C 2.5973 -0.8869 0.0 0
M  V30 32 C 3.9388 -10.68 0.0 0
M  V30 33 C 5.8717 -8.9397 0.0 0
M  V30 34 O 2.6008 2.2524 0.0 0
M  V30 35 C 0.0 2.2524 0.0 0
M  V30 END ATOM
M  V30 BEGIN BOND
M  V30 1 2 1 2
M  V30 2 1 2 3
M  V30 3 1 2 4
M  V30 4 2 3 5
M  V30 5 1 4 6
M  V30 6 1 5 7
M  V30 7 1 5 8
M  V30 8 2 7 9
M  V30 9 1 8 10
M  V30 10 1 11 9
M  V30 11 1 12 9
M  V30 12 1 11 13 CFG=1
M  V30 13 1 11 14
M  V30 14 1 15 12
M  V30 15 2 13 16
M  V30 16 1 13 17
M  V30 17 1 18 14
M  V30 18 1 15 19 CFG=1
M  V30 19 1 16 20
M  V30 20 2 17 21
M  V30 21 1 22 18
M  V30 22 1 18 23 CFG=1
M  V30 23 1 19 24
M  V30 24 2 20 25
M  V30 25 1 22 26
M  V30 26 1 22 27 CFG=1
M  V30 27 1 25 28
M  V30 28 1 26 29
M  V30 29 2 27 30
M  V30 30 1 27 31
M  V30 31 1 28 32
M  V30 32 1 28 33
M  V30 33 2 29 34
M  V30 34 1 29 35
M  V30 35 1 6 7
M  V30 36 1 12 10 CFG=3
M  V30 37 1 15 18
M  V30 38 1 21 25
M  V30 39 1 22 24
M  V30 END BOND
M  V30 BEGIN COLLECTION
M  V30 MDLV30/STERAC1 ATOMS=(5 11 12 15 18 22)
M  V30 END COLLECTION
M  V30 END CTAB
M  END
>  <Molecule Name>


>  <status>
-

>  <cas>
126784-99-4

>  <name>
ULIPRISTAL ACETATE

>  <ID>
1498

>  <Smiles>
C[C@@](C[C@H]1c(cc2)ccc2N(C)C)([C@H](CC2)[C@@H](CC3)C1=C(CC1)C3=CC1=O)[C@@]2(C(C)=O)OC(C)=O

$$$$

Actelion Java MolfileCreator 2.0

  0  0  0  0  0  0              0 V3000
M  V30 BEGIN CTAB
M  V30 COUNTS 46 49 0 0 0
M  V30 BEGIN ATOM
M  V30 1 O 9.0932 1.5 0.0 0
M  V30 2 C 9.0932 0.0 0.0 0
M  V30 3 O 7.7942 -0.75 0.0 0
M  V30 4 N 10.3923 -0.75 0.0 0
M  V30 5 C 6.4951 0.0 0.0 0
M  V30 6 C 11.6913 0.0 0.0 0
M  V30 7 C 5.1961 -0.75 0.0 0
M  V30 8 N 12.9903 -0.75 0.0 0
M  V30 9 C 11.6913 1.5 0.0 0
M  V30 10 C 3.8971 0.0 0.0 0
M  V30 11 C 12.9903 2.25 0.0 0
M  V30 12 C 10.3923 2.2499 0.0 0
M  V30 13 C 2.598 -0.75 0.0 0
M  V30 14 C 12.9903 3.75 0.0 0
M  V30 15 C 10.3923 3.7499 0.0 0
M  V30 16 C 1.299 0.0 0.0 0
M  V30 17 C 11.6913 4.5 0.0 0
M  V30 18 C 0.0 -0.75 0.0 0
M  V30 19 N 11.6913 6.0 0.0 0
M  V30 20 C 12.9903 6.75 0.0 0
M  V30 21 C 12.9903 8.25 0.0 0
M  V30 22 N 14.2039 9.1316 0.0 0
M  V30 23 N 11.7768 9.1316 0.0 0
M  V30 24 C 13.7403 10.5582 0.0 0
M  V30 25 C 12.2403 10.5582 0.0 0
M  V30 26 C 10.3502 8.6681 0.0 0
M  V30 27 C 14.4903 11.8573 0.0 0
M  V30 28 C 11.4903 11.8573 0.0 0
M  V30 29 C 13.7403 13.1563 0.0 0
M  V30 30 C 12.2403 13.1563 0.0 0
M  V30 31 C 14.4903 14.4553 0.0 0
M  V30 32 O 15.9903 14.4553 0.0 0
M  V30 33 N 13.7403 15.7544 0.0 0
M  V30 34 C 12.2403 15.7544 0.0 0
M  V30 35 C 14.4903 17.0534 0.0 0
M  V30 36 N 11.4903 17.0534 0.0 0
M  V30 37 C 11.4903 14.4553 0.0 0
M  V30 38 C 13.7403 18.3524 0.0 0
M  V30 39 C 9.9903 17.0534 0.0 0
M  V30 40 C 9.9903 14.4553 0.0 0
M  V30 41 C 14.4903 19.6515 0.0 0
M  V30 42 C 9.2403 15.7544 0.0 0
M  V30 43 O 15.9903 19.6515 0.0 0
M  V30 44 O 13.7403 20.9505 0.0 0
M  V30 45 C 14.4903 22.2496 0.0 0
M  V30 46 C 13.7403 23.5486 0.0 0
M  V30 END ATOM
M  V30 BEGIN BOND
M  V30 1 2 1 2
M  V30 2 1 2 3
M  V30 3 1 2 4
M  V30 4 1 3 5
M  V30 5 1 4 6
M  V30 6 1 5 7
M  V30 7 2 6 8
M  V30 8 1 6 9
M  V30 9 1 7 10
M  V30 10 2 9 11
M  V30 11 1 9 12
M  V30 12 1 10 13
M  V30 13 1 11 14
M  V30 14 2 12 15
M  V30 15 1 13 16
M  V30 16 2 14 17
M  V30 17 1 16 18
M  V30 18 1 17 19
M  V30 19 1 19 20
M  V30 20 1 20 21
M  V30 21 2 21 22
M  V30 22 1 21 23
M  V30 23 1 22 24
M  V30 24 1 23 25
M  V30 25 1 23 26
M  V30 26 1 24 27
M  V30 27 1 25 28
M  V30 28 2 27 29
M  V30 29 2 28 30
M  V30 30 1 29 31
M  V30 31 2 31 32
M  V30 32 1 31 33
M  V30 33 1 33 34
M  V30 34 1 33 35
M  V30 35 2 34 36
M  V30 36 1 34 37
M  V30 37 1 35 38
M  V30 38 1 36 39
M  V30 39 2 37 40
M  V30 40 1 38 41
M  V30 41 2 39 42
M  V30 42 2 41 43
M  V30 43 1 41 44
M  V30 44 1 44 45
M  V30 45 1 45 46
M  V30 46 1 15 17
M  V30 47 2 24 25
M  V30 48 1 29 30
M  V30 49 1 40 42
M  V30 END BOND
M  V30 END CTAB
M  END
>  <Molecule Name>


>  <status>
-

>  <cas>
211915-06-9

>  <name>
DABIGATRAN ETEXILATE

>  <ID>
1499

>  <Smiles>
CCCCCCOC(NC(c(cc1)ccc1NCc1nc(cc(cc2)C(N(CCC(OCC)=O)c3ncccc3)=O)c2n1C)=N)=O

$$$$

Actelion Java MolfileCreator 2.0

  0  0  0  0  0  0              0 V3000
M  V30 BEGIN CTAB
M  V30 COUNTS 22 22 0 0 0
M  V30 BEGIN ATOM
M  V30 1 O 16.8874 -7.5 0.0 0
M  V30 2 C 15.5884 -6.75 0.0 0
M  V30 3 C 15.5884 -5.25 0.0 0
M  V30 4 N 14.2894 -6.0 0.0 0
M  V30 5 C 16.8874 -4.4999 0.0 0
M  V30 6 C 14.2894 -4.5 0.0 0
M  V30 7 O 18.1865 -5.2499 0.0 0
M  V30 8 C 14.2894 -3.0 0.0 0
M  V30 9 C 12.9903 -2.25 0.0 0
M  V30 10 C 12.9903 -0.75 0.0 0
M  V30 11 C 11.6913 -3.0 0.0 0
M  V30 12 C 11.6913 0.0 0.0 0
M  V30 13 C 10.3923 -2.25 0.0 0
M  V30 14 C 10.3923 -0.75 0.0 0
M  V30 15 C 9.0932 0.0 0.0 0
M  V30 16 C 7.7942 -0.75 0.0 0
M  V30 17 C 6.4951 0.0 0.0 0
M  V30 18 C 5.1961 -0.75 0.0 0
M  V30 19 C 3.8971 0.0 0.0 0
M  V30 20 C 2.598 -0.75 0.0 0
M  V30 21 C 1.299 0.0 0.0 0
M  V30 22 C 0.0 -0.75 0.0 0
M  V30 END ATOM
M  V30 BEGIN BOND
M  V30 1 1 1 2
M  V30 2 1 2 3
M  V30 3 1 3 4
M  V30 4 1 3 5
M  V30 5 1 3 6
M  V30 6 1 5 7
M  V30 7 1 6 8
M  V30 8 1 8 9
M  V30 9 2 9 10
M  V30 10 1 9 11
M  V30 11 1 10 12
M  V30 12 2 11 13
M  V30 13 2 12 14
M  V30 14 1 14 15
M  V30 15 1 15 16
M  V30 16 1 16 17
M  V30 17 1 17 18
M  V30 18 1 18 19
M  V30 19 1 19 20
M  V30 20 1 20 21
M  V30 21 1 21 22
M  V30 22 1 13 14
M  V30 END BOND
M  V30 END CTAB
M  END
>  <Molecule Name>


>  <status>
-

>  <cas>
162359-55-9

>  <name>
FINGOLIMOD

>  <ID>
1500

>  <Smiles>
CCCCCCCCc1ccc(CCC(CO)(CO)N)cc1

$$$$

Actelion Java MolfileCreator 2.0

  0  0  0  0  0  0              0 V3000
M  V30 BEGIN CTAB
M  V30 COUNTS 33 35 0 0 0
M  V30 BEGIN ATOM
M  V30 1 O 12.9903 0.0 0.0 0
M  V30 2 C 12.9903 0.9999 0.0 0
M  V30 3 N 13.8564 1.4999 0.0 0
M  V30 4 C 12.1243 1.4999 0.0 0
M  V30 5 C 13.8564 2.4999 0.0 0
M  V30 6 N 11.2583 0.9999 0.0 0
M  V30 7 C 12.1243 2.4999 0.0 0
M  V30 8 N 12.9903 2.9999 0.0 0
M  V30 9 N 14.7224 2.9999 0.0 0
M  V30 10 C 10.3923 1.4999 0.0 0 CFG=2
M  V30 11 C 11.2583 0.0 0.0 0
M  V30 12 N 11.2583 2.9999 0.0 0
M  V30 13 C 10.3923 2.4999 0.0 0
M  V30 14 C 9.5262 0.9999 0.0 0
M  V30 15 N 8.6602 1.4999 0.0 0
M  V30 16 C 7.7942 0.9999 0.0 0
M  V30 17 C 6.9282 1.4999 0.0 0
M  V30 18 C 7.7942 0.0 0.0 0
M  V30 19 C 6.0621 0.9999 0.0 0
M  V30 20 C 6.9282 -0.5 0.0 0
M  V30 21 C 6.0621 0.0 0.0 0
M  V30 22 C 5.1961 -0.5 0.0 0
M  V30 23 O 5.1961 -1.4999 0.0 0
M  V30 24 N 4.3301 0.0 0.0 0
M  V30 25 C 3.4641 -0.5 0.0 0 CFG=2
M  V30 26 C 3.4641 -1.5 0.0 0
M  V30 27 C 2.598 0.0 0.0 0
M  V30 28 O 2.598 -1.9999 0.0 0
M  V30 29 O 4.3301 -2.0 0.0 0 CHG=-1
M  V30 30 C 1.732 -0.5 0.0 0
M  V30 31 C 0.866 0.0 0.0 0
M  V30 32 O 0.866 1.0 0.0 0
M  V30 33 O 0.0 -0.5 0.0 0 CHG=-1
M  V30 END ATOM
M  V30 BEGIN BOND
M  V30 1 2 1 2
M  V30 2 1 2 3
M  V30 3 1 2 4
M  V30 4 2 3 5
M  V30 5 1 4 6
M  V30 6 2 4 7
M  V30 7 1 5 8
M  V30 8 1 5 9
M  V30 9 1 10 6
M  V30 10 1 6 11
M  V30 11 1 7 12
M  V30 12 1 10 13
M  V30 13 1 10 14 CFG=1
M  V30 14 1 14 15
M  V30 15 1 15 16
M  V30 16 2 16 17
M  V30 17 1 16 18
M  V30 18 1 17 19
M  V30 19 2 18 20
M  V30 20 2 19 21
M  V30 21 1 21 22
M  V30 22 2 22 23
M  V30 23 1 22 24
M  V30 24 1 25 24 CFG=3
M  V30 25 1 25 26
M  V30 26 1 25 27
M  V30 27 2 26 28
M  V30 28 1 26 29
M  V30 29 1 27 30
M  V30 30 1 30 31
M  V30 31 2 31 32
M  V30 32 1 31 33
M  V30 33 1 7 8
M  V30 34 1 12 13
M  V30 35 1 20 21
M  V30 END BOND
M  V30 BEGIN COLLECTION
M  V30 MDLV30/STERAC1 ATOMS=(2 10 25)
M  V30 END COLLECTION
M  V30 END CTAB
M  END
>  <Molecule Name>


>  <status>
-

>  <cas>
151533-22-1

>  <name>
LEVOMEFOLATE

>  <ID>
1501

>  <Smiles>
CN([C@@H](CNc(cc1)ccc1C(N[C@@H](CCC([O-])=O)C([O-])=O)=O)CN1)C2=C1NC(N)=NC2=O

$$$$

Actelion Java MolfileCreator 2.0

  0  0  0  0  0  0              0 V3000
M  V30 BEGIN CTAB
M  V30 COUNTS 43 47 0 0 0
M  V30 BEGIN ATOM
M  V30 1 S 7.7352 -0.9659 0.0 0
M  V30 2 C 7.0281 -0.2588 0.0 0 CFG=2
M  V30 3 C 8.7011 -0.7071 0.0 0
M  V30 4 N 7.2869 0.7071 0.0 0
M  V30 5 C 6.0621 0.0 0.0 0 CFG=2
M  V30 6 C 8.9599 0.2588 0.0 0
M  V30 7 C 8.2528 0.9659 0.0 0
M  V30 8 C 6.3209 0.9659 0.0 0
M  V30 9 N 5.1961 -0.5 0.0 0
M  V30 10 S 9.9258 0.5176 0.0 0
M  V30 11 C 8.5116 1.9318 0.0 0
M  V30 12 O 5.8209 1.8319 0.0 0
M  V30 13 C 4.3301 0.0 0.0 0
M  V30 14 C 10.6329 -0.1894 0.0 0
M  V30 15 O 9.4775 2.1906 0.0 0
M  V30 16 O 7.8045 2.6389 0.0 0 CHG=-1
M  V30 17 O 4.3301 1.0 0.0 0
M  V30 18 C 3.4641 -0.5 0.0 0
M  V30 19 S 10.4765 -1.1771 0.0 0
M  V30 20 N 11.6206 -0.033 0.0 0
M  V30 21 N 2.598 0.0 0.0 0
M  V30 22 C 3.4641 -1.5 0.0 0
M  V30 23 C 11.3675 -1.6311 0.0 0
M  V30 24 C 12.0746 -0.924 0.0 0
M  V30 25 O 2.598 0.9999 0.0 0
M  V30 26 N 2.655 -2.0877 0.0 0
M  V30 27 N 4.2731 -2.0877 0.0 0
M  V30 28 C 13.0623 -1.0804 0.0 0
M  V30 29 C 1.732 1.4999 0.0 0
M  V30 30 S 2.9641 -3.0388 0.0 0
M  V30 31 C 3.9641 -3.0388 0.0 0
M  V30 32 C 13.4207 -2.014 0.0 0
M  V30 33 C 13.6916 -0.3033 0.0 0
M  V30 34 C 1.732 2.4999 0.0 0
M  V30 35 N 4.5518 -3.8478 0.0 0
M  V30 36 C 14.4084 -2.1704 0.0 0
M  V30 37 C 14.6793 -0.4597 0.0 0
M  V30 38 P 5.5464 -3.7433 0.0 0
M  V30 39 N 15.0377 -1.3933 0.0 0 CHG=1
M  V30 40 O 5.6509 -4.7378 0.0 0
M  V30 41 O 6.5409 -3.6388 0.0 0 CHG=-1
M  V30 42 O 5.4418 -2.7488 0.0 0 CHG=-1
M  V30 43 C 16.0254 -1.5497 0.0 0
M  V30 END ATOM
M  V30 BEGIN BOND
M  V30 1 1 2 1 CFG=1
M  V30 2 1 1 3
M  V30 3 1 2 4
M  V30 4 1 5 2
M  V30 5 1 3 6
M  V30 6 1 4 7
M  V30 7 1 4 8
M  V30 8 1 5 9 CFG=1
M  V30 9 1 6 10
M  V30 10 1 7 11
M  V30 11 2 8 12
M  V30 12 1 9 13
M  V30 13 1 10 14
M  V30 14 2 11 15
M  V30 15 1 11 16
M  V30 16 2 13 17
M  V30 17 1 13 18
M  V30 18 1 14 19
M  V30 19 2 14 20
M  V30 20 2 18 21
M  V30 21 1 18 22
M  V30 22 1 19 23
M  V30 23 1 20 24
M  V30 24 1 21 25
M  V30 25 2 22 26
M  V30 26 1 22 27
M  V30 27 1 24 28
M  V30 28 1 25 29
M  V30 29 1 26 30
M  V30 30 2 27 31
M  V30 31 2 28 32
M  V30 32 1 28 33
M  V30 33 1 29 34
M  V30 34 1 31 35
M  V30 35 1 32 36
M  V30 36 2 33 37
M  V30 37 1 35 38
M  V30 38 2 36 39
M  V30 39 2 38 40
M  V30 40 1 38 41
M  V30 41 1 38 42
M  V30 42 1 39 43
M  V30 43 1 5 8
M  V30 44 2 6 7
M  V30 45 2 23 24
M  V30 46 1 30 31
M  V30 47 1 37 39
M  V30 END BOND
M  V30 BEGIN COLLECTION
M  V30 MDLV30/STERAC1 ATOMS=(2 2 5)
M  V30 END COLLECTION
M  V30 END CTAB
M  END
>  <Molecule Name>


>  <status>
-

>  <cas>
402741-13-3

>  <name>
CEFTAROLINE

>  <ID>
1502

>  <Smiles>
CCO/N=C(\C(N[C@H]([C@@H]1SCC(Sc2nc(-c3cc[n+](C)cc3)cs2)=C(C([O-])=O)N11)C1=O)=O)/c1nsc(NP([O-])([O-])=O)n1

$$$$

Actelion Java MolfileCreator 2.0

  0  0  0  0  0  0              0 V3000
M  V30 BEGIN CTAB
M  V30 COUNTS 35 41 0 0 0
M  V30 BEGIN ATOM
M  V30 1 S 5.9128 -2.3364 0.0 0
M  V30 2 N 5.2436 -1.5932 0.0 0
M  V30 3 C 5.4128 -3.2024 0.0 0
M  V30 4 C 4.3301 -1.9999 0.0 0
M  V30 5 C 4.4346 -2.9945 0.0 0
M  V30 6 C 5.7218 -4.1534 0.0 0
M  V30 7 N 3.4641 -1.4999 0.0 0
M  V30 8 C 3.7655 -3.7376 0.0 0
M  V30 9 C 5.0526 -4.8966 0.0 0
M  V30 10 C 3.4641 -0.5 0.0 0
M  V30 11 C 2.598 -1.9999 0.0 0
M  V30 12 C 4.0745 -4.6887 0.0 0
M  V30 13 C 2.598 0.0 0.0 0
M  V30 14 C 1.732 -1.5 0.0 0
M  V30 15 N 1.732 -0.5 0.0 0
M  V30 16 C 0.866 0.0 0.0 0
M  V30 17 C 0.0 -0.5 0.0 0 CFG=2
M  V30 18 C -0.866 0.0 0.0 0 CFG=2
M  V30 19 C 0.0 -1.4999 0.0 0
M  V30 20 C -1.732 -0.4999 0.0 0
M  V30 21 C -0.866 1.0 0.0 0
M  V30 22 C -0.866 -1.9999 0.0 0
M  V30 23 C -1.732 -1.4999 0.0 0
M  V30 24 N -1.732 1.5 0.0 0
M  V30 25 C -1.8365 2.4945 0.0 0
M  V30 26 C -2.6455 1.0932 0.0 0
M  V30 27 O -1.0934 3.1636 0.0 0
M  V30 28 C -2.8147 2.7024 0.0 0 CFG=2
M  V30 29 O -2.8535 0.1151 0.0 0
M  V30 30 C -3.3147 1.8364 0.0 0 CFG=1
M  V30 31 C -3.4838 3.4455 0.0 0 CFG=1
M  V30 32 C -4.2928 2.0443 0.0 0 CFG=2
M  V30 33 C -4.3974 3.0388 0.0 0
M  V30 34 C -4.8013 3.8494 0.0 0
M  V30 35 C -5.3013 2.9833 0.0 0
M  V30 END ATOM
M  V30 BEGIN BOND
M  V30 1 1 1 2
M  V30 2 1 1 3
M  V30 3 2 2 4
M  V30 4 2 3 5
M  V30 5 1 3 6
M  V30 6 1 4 7
M  V30 7 1 5 8
M  V30 8 2 6 9
M  V30 9 1 7 10
M  V30 10 1 7 11
M  V30 11 2 8 12
M  V30 12 1 10 13
M  V30 13 1 11 14
M  V30 14 1 13 15
M  V30 15 1 15 16
M  V30 16 1 17 16 CFG=1
M  V30 17 1 18 17
M  V30 18 1 17 19
M  V30 19 1 18 20
M  V30 20 1 18 21 CFG=3
M  V30 21 1 19 22
M  V30 22 1 20 23
M  V30 23 1 21 24
M  V30 24 1 24 25
M  V30 25 1 24 26
M  V30 26 2 25 27
M  V30 27 1 28 25 CFG=3
M  V30 28 2 26 29
M  V30 29 1 30 26 CFG=3
M  V30 30 1 31 28
M  V30 31 1 32 30
M  V30 32 1 31 33 CFG=3
M  V30 33 1 31 34
M  V30 34 1 32 35 CFG=1
M  V30 35 1 4 5
M  V30 36 1 9 12
M  V30 37 1 14 15
M  V30 38 1 22 23
M  V30 39 1 28 30
M  V30 40 1 32 33
M  V30 41 1 34 35
M  V30 END BOND
M  V30 BEGIN COLLECTION
M  V30 MDLV30/STEABS ATOMS=(4 28 30 31 32)
M  V30 MDLV30/STERAC1 ATOMS=(2 17 18)
M  V30 END COLLECTION
M  V30 END CTAB
M  END
>  <Molecule Name>


>  <status>
-

>  <cas>
367514-87-2

>  <name>
LURASIDONE

>  <ID>
1503

>  <Smiles>
O=C([C@H]1[C@@H]2[C@H]3C[C@@H]1CC3)N(C[C@@H]1[C@@H](CN(CC3)CCN3c3nsc4c3cccc4)CCCC1)C2=O

$$$$

Actelion Java MolfileCreator 2.0

  0  0  0  0  0  0              0 V3000
M  V30 BEGIN CTAB
M  V30 COUNTS 60 65 0 0 0
M  V30 BEGIN ATOM
M  V30 1 O 9.6581 -3.9594 0.0 0
M  V30 2 C 9.3993 -2.9935 0.0 0
M  V30 3 C 10.1927 -2.3847 0.0 0 CFG=2
M  V30 4 C 8.4079 -2.863 0.0 0 CFG=1
M  V30 5 C 10.3232 -1.3933 0.0 0 CFG=2
M  V30 6 C 10.986 -2.9935 0.0 0 CFG=2
M  V30 7 C 10.1927 -3.3847 0.0 0
M  V30 8 O 7.8922 -3.7198 0.0 0
M  V30 9 C 7.7942 -2.0 0.0 0
M  V30 10 C 11.2471 -1.0106 0.0 0 CFG=2
M  V30 11 C 9.7144 -0.5999 0.0 0 CFG=1
M  V30 12 O 10.8555 -3.9849 0.0 0
M  V30 13 C 11.9099 -2.6108 0.0 0
M  V30 14 C 8.3764 -4.5947 0.0 0
M  V30 15 C 6.9282 -1.5 0.0 0
M  V30 16 C 8.6602 -1.5 0.0 0
M  V30 17 O 10.6383 -0.2172 0.0 0
M  V30 18 C 12.0404 -1.6194 0.0 0 CFG=2
M  V30 19 C 11.8558 -0.2172 0.0 0
M  V30 20 O 10.1986 0.2749 0.0 0
M  V30 21 C 8.6602 -0.5 0.0 0 CFG=1
M  V30 22 C 11.6489 -4.5937 0.0 0
M  V30 23 C 6.9282 -0.5 0.0 0 CFG=1
M  V30 24 C 6.0621 -2.0 0.0 0
M  V30 25 C 9.1602 -2.366 0.0 0
M  V30 26 C 9.6602 -1.4999 0.0 0
M  V30 27 C 11.021 0.7065 0.0 0
M  V30 28 O 12.6492 -0.826 0.0 0
M  V30 29 C 9.683 1.1317 0.0 0
M  V30 30 O 8.9644 0.4526 0.0 0
M  V30 31 C 7.7942 0.0 0.0 0
M  V30 32 O 6.0621 0.0 0.0 0
M  V30 33 O 12.0125 0.8371 0.0 0
M  V30 34 C 10.4298 1.4902 0.0 0
M  V30 35 O 8.6831 1.1136 0.0 0
M  V30 36 C 10.1671 2.0067 0.0 0
M  V30 37 C 5.1961 -0.5 0.0 0
M  V30 38 C 9.6515 2.8635 0.0 0
M  V30 39 C 11.167 2.0249 0.0 0
M  V30 40 O 5.1961 -1.4999 0.0 0
M  V30 41 C 4.3301 0.0 0.0 0 CFG=1
M  V30 42 C 10.1357 3.7385 0.0 0
M  V30 43 C 11.6512 2.8999 0.0 0
M  V30 44 O 4.3301 1.0 0.0 0
M  V30 45 C 3.4641 -0.5 0.0 0 CFG=2
M  V30 46 C 11.1355 3.7566 0.0 0
M  V30 47 N 2.598 0.0 0.0 0
M  V30 48 C 3.4641 -1.5 0.0 0
M  V30 49 C 1.732 -0.5 0.0 0
M  V30 50 C 2.598 -1.9999 0.0 0
M  V30 51 C 4.3301 -2.0 0.0 0
M  V30 52 O 1.732 -1.5 0.0 0
M  V30 53 O 0.866 0.0 0.0 0
M  V30 54 C 2.598 -2.9999 0.0 0
M  V30 55 C 4.3301 -3.0 0.0 0
M  V30 56 C 0.0 -0.5 0.0 0
M  V30 57 C 3.4641 -3.5 0.0 0
M  V30 58 C 0.4999 -1.366 0.0 0
M  V30 59 C -0.866 -0.9999 0.0 0
M  V30 60 C -0.4999 0.366 0.0 0
M  V30 END ATOM
M  V30 BEGIN BOND
M  V30 1 2 1 2
M  V30 2 1 3 2
M  V30 3 1 4 2
M  V30 4 1 5 3
M  V30 5 1 6 3
M  V30 6 1 3 7 CFG=1
M  V30 7 1 4 8 CFG=1
M  V30 8 1 4 9
M  V30 9 1 10 5
M  V30 10 1 5 11 CFG=1
M  V30 11 1 6 12 CFG=1
M  V30 12 1 6 13
M  V30 13 1 8 14
M  V30 14 2 9 15
M  V30 15 1 9 16
M  V30 16 1 10 17 CFG=3
M  V30 17 1 18 10
M  V30 18 1 10 19
M  V30 19 1 11 20 CFG=3
M  V30 20 1 21 11
M  V30 21 1 12 22
M  V30 22 1 23 15
M  V30 23 1 15 24
M  V30 24 1 16 25
M  V30 25 1 16 26
M  V30 26 1 17 27
M  V30 27 1 18 28 CFG=1
M  V30 28 1 20 29
M  V30 29 1 21 30 CFG=1
M  V30 30 1 21 31
M  V30 31 1 23 32 CFG=3
M  V30 32 2 27 33
M  V30 33 1 27 34
M  V30 34 2 29 35
M  V30 35 1 29 36
M  V30 36 1 32 37
M  V30 37 2 36 38
M  V30 38 1 36 39
M  V30 39 2 37 40
M  V30 40 1 41 37
M  V30 41 1 38 42
M  V30 42 2 39 43
M  V30 43 1 41 44 CFG=3
M  V30 44 1 45 41
M  V30 45 2 42 46
M  V30 46 1 45 47 CFG=1
M  V30 47 1 45 48
M  V30 48 1 47 49
M  V30 49 2 48 50
M  V30 50 1 48 51
M  V30 51 2 49 52
M  V30 52 1 49 53
M  V30 53 1 50 54
M  V30 54 2 51 55
M  V30 55 1 53 56
M  V30 56 2 54 57
M  V30 57 1 56 58
M  V30 58 1 56 59
M  V30 59 1 56 60
M  V30 60 1 13 18
M  V30 61 1 16 21
M  V30 62 1 19 28
M  V30 63 1 23 31
M  V30 64 1 43 46
M  V30 65 1 55 57
M  V30 END BOND
M  V30 BEGIN COLLECTION
M  V30 MDLV30/STERAC1 ATOMS=(11 3 4 5 6 10 11 18 21 23 41 45)
M  V30 END COLLECTION
M  V30 END CTAB
M  END
>  <Molecule Name>


>  <status>
-

>  <cas>
183133-96-2

>  <name>
CABAZITAXEL

>  <ID>
1504

>  <Smiles>
CC(C)(C)OC(N[C@@H]([C@@H](C(O[C@H](C1)C(C)=C([C@@H](C([C@@](C)([C@@H](C[C@@H]2OC3)OC)[C@@H]([C@H]4OC(c5ccccc5)=O)[C@]23OC(C)=O)=O)OC)C(C)(C)[C@@]14O)=O)O)c1ccccc1)=O

$$$$

Actelion Java MolfileCreator 2.0

  0  0  0  0  0  0              0 V3000
M  V30 BEGIN CTAB
M  V30 COUNTS 52 60 0 0 0
M  V30 BEGIN ATOM
M  V30 1 O 6.0467 0.8956 0.0 0
M  V30 2 C 6.5467 0.0296 0.0 0
M  V30 3 C 7.5467 0.0296 0.0 0
M  V30 4 C 6.0467 -0.8364 0.0 0
M  V30 5 C 8.0967 -0.7224 0.0 0 CFG=1
M  V30 6 C 5.0467 -0.8364 0.0 0 CFG=1
M  V30 7 O 7.5444 -1.5561 0.0 0
M  V30 8 C 9.0948 -0.7839 0.0 0
M  V30 9 C 4.3776 -0.0932 0.0 0 CFG=2
M  V30 10 C 4.5467 -1.7024 0.0 0 CFG=2
M  V30 11 C 8.1088 -2.0578 0.0 0 CFG=1
M  V30 12 C 9.5406 -1.679 0.0 0
M  V30 13 O 4.5855 0.8848 0.0 0
M  V30 14 C 3.4641 -0.5 0.0 0 CFG=1
M  V30 15 O 3.5669 -1.4197 0.0 0
M  V30 16 C 3.5315 -1.8471 0.0 0
M  V30 17 C 7.1951 -2.4641 0.0 0 CFG=1
M  V30 18 C 8.9175 -2.6459 0.0 0 CFG=1
M  V30 19 C 5.5366 1.1939 0.0 0
M  V30 20 C 2.598 0.0 0.0 0
M  V30 21 C 3.0467 -2.5684 0.0 0 CFG=2
M  V30 22 O 8.7944 -4.4118 0.0 0
M  V30 23 C 7.0901 -3.4585 0.0 0 CFG=1
M  V30 24 O 8.8125 -3.6404 0.0 0
M  V30 25 C 2.598 0.9999 0.0 0 CFG=1
M  V30 26 O 3.5467 -3.4344 0.0 0
M  V30 27 C 2.0467 -2.5684 0.0 0
M  V30 28 C 7.0888 -6.4667 0.0 0 CFG=2
M  V30 29 O 6.2808 -4.0459 0.0 0
M  V30 30 C 7.8835 -4.0592 0.0 0 CFG=2
M  V30 31 O 3.4641 1.4999 0.0 0
M  V30 32 C 1.732 1.4999 0.0 0
M  V30 33 C 3.0467 -4.3005 0.0 0 CFG=2
M  V30 34 C 1.5467 -1.7024 0.0 0
M  V30 35 C 1.5467 -3.4344 0.0 0 CFG=2
M  V30 36 O 7.8813 -5.9149 0.0 0
M  V30 37 C 8.1513 -6.0934 0.0 0
M  V30 38 C 6.3529 -5.9192 0.0 0
M  V30 39 C 6.5893 -4.9971 0.0 0 CFG=1
M  V30 40 C 7.5893 -4.9976 0.0 0 CFG=2
M  V30 41 N 1.732 2.4999 0.0 0
M  V30 42 C 3.5467 -5.1665 0.0 0
M  V30 43 C 2.0467 -4.3005 0.0 0
M  V30 44 C 0.5467 -3.4344 0.0 0
M  V30 45 C 7.5467 -6.8985 0.0 0
M  V30 46 C 4.5467 -5.1665 0.0 0
M  V30 47 C 6.4827 -6.8954 0.0 0 CFG=1
M  V30 48 C 5.0815 -6.0864 0.0 0 CFG=1
M  V30 49 O 5.9313 -6.0058 0.0 0
M  V30 50 C 5.7396 -7.5645 0.0 0
M  V30 51 C 4.8736 -7.0645 0.0 0
M  V30 52 C 3.96 -7.4712 0.0 0
M  V30 END ATOM
M  V30 BEGIN BOND
M  V30 1 2 1 2
M  V30 2 1 2 3
M  V30 3 1 2 4
M  V30 4 1 5 3
M  V30 5 1 6 4 CFG=3
M  V30 6 1 5 7 CFG=3
M  V30 7 1 5 8
M  V30 8 1 9 6
M  V30 9 1 10 6
M  V30 10 1 11 7 CFG=3
M  V30 11 1 8 12
M  V30 12 1 9 13 CFG=1
M  V30 13 1 14 9
M  V30 14 1 10 15 CFG=3
M  V30 15 1 10 16
M  V30 16 1 17 11
M  V30 17 1 18 11
M  V30 18 1 13 19
M  V30 19 1 14 20 CFG=1
M  V30 20 1 21 16
M  V30 21 1 17 22 CFG=3
M  V30 22 1 23 17
M  V30 23 1 18 24 CFG=1
M  V30 24 1 25 20
M  V30 25 1 21 26 CFG=3
M  V30 26 1 21 27
M  V30 27 1 28 22 CFG=3
M  V30 28 1 23 29 CFG=3
M  V30 29 1 30 23
M  V30 30 1 25 31 CFG=3
M  V30 31 1 25 32
M  V30 32 1 33 26 CFG=3
M  V30 33 2 27 34
M  V30 34 1 35 27
M  V30 35 1 28 36
M  V30 36 1 28 37
M  V30 37 1 28 38
M  V30 38 1 39 29 CFG=3
M  V30 39 1 40 30
M  V30 40 1 32 41
M  V30 41 1 33 42
M  V30 42 1 33 43
M  V30 43 1 35 44 CFG=3
M  V30 44 1 37 45
M  V30 45 1 42 46
M  V30 46 1 47 45
M  V30 47 1 48 46
M  V30 48 1 47 49 CFG=3
M  V30 49 1 47 50
M  V30 50 1 48 51
M  V30 51 2 51 52
M  V30 52 1 12 18
M  V30 53 1 14 15
M  V30 54 1 30 24 CFG=3
M  V30 55 1 35 43
M  V30 56 1 40 36 CFG=3
M  V30 57 1 38 39
M  V30 58 1 39 40
M  V30 59 1 48 49 CFG=1
M  V30 60 1 50 51
M  V30 END BOND
M  V30 BEGIN COLLECTION
M  V30 MDLV30/STERAC1 ATOMS=(19 5 6 9 10 11 14 17 18 21 23 25 28 30 33 35 39 40 47 48)
M  V30 END COLLECTION
M  V30 END CTAB
M  END
>  <Molecule Name>


>  <status>
-

>  <cas>
253128-41-5

>  <name>
ERIBULIN

>  <ID>
1505

>  <Smiles>
C[C@@H](C[C@@H](CC[C@H](C(C1)=C)O[C@@H]1CC[C@@](C[C@@H]1O[C@H]23)(O[C@H]1[C@H]3O[C@@H]1CC3)O[C@@H]2[C@@H]1O[C@@H]3CC(C[C@@H]12)=O)O[C@H]3C[C@H]2O[C@@H](C[C@H](CN)O)[C@H]1OC)C3=C

$$$$

Actelion Java MolfileCreator 2.0

  0  0  0  0  0  0              0 V3000
M  V30 BEGIN CTAB
M  V30 COUNTS 22 23 0 0 0
M  V30 BEGIN ATOM
M  V30 1 F 11.2583 2.9999 0.0 0
M  V30 2 C 10.3923 2.4999 0.0 0
M  V30 3 C 9.5262 2.9999 0.0 0
M  V30 4 C 10.3923 1.4999 0.0 0
M  V30 5 C 8.6602 2.4999 0.0 0
M  V30 6 C 9.5262 0.9999 0.0 0
M  V30 7 C 8.6602 1.4999 0.0 0
M  V30 8 C 7.7942 0.9999 0.0 0
M  V30 9 N 6.9282 1.4999 0.0 0
M  V30 10 C 6.0621 0.9999 0.0 0
M  V30 11 C 5.1961 1.4999 0.0 0
M  V30 12 C 6.0621 0.0 0.0 0
M  V30 13 C 4.3301 0.9999 0.0 0
M  V30 14 C 5.1961 -0.5 0.0 0
M  V30 15 N 3.4641 1.5 0.0 0
M  V30 16 C 4.3301 0.0 0.0 0
M  V30 17 N 3.4641 -0.5 0.0 0
M  V30 18 C 2.598 0.0 0.0 0
M  V30 19 O 2.598 1.0 0.0 0
M  V30 20 O 1.732 -0.5 0.0 0
M  V30 21 C 0.866 0.0 0.0 0
M  V30 22 C 0.0 -0.5 0.0 0
M  V30 END ATOM
M  V30 BEGIN BOND
M  V30 1 1 1 2
M  V30 2 2 2 3
M  V30 3 1 2 4
M  V30 4 1 3 5
M  V30 5 2 4 6
M  V30 6 2 5 7
M  V30 7 1 7 8
M  V30 8 1 8 9
M  V30 9 1 9 10
M  V30 10 2 10 11
M  V30 11 1 10 12
M  V30 12 1 11 13
M  V30 13 2 12 14
M  V30 14 1 13 15
M  V30 15 2 13 16
M  V30 16 1 16 17
M  V30 17 1 17 18
M  V30 18 2 18 19
M  V30 19 1 18 20
M  V30 20 1 20 21
M  V30 21 1 21 22
M  V30 22 1 6 7
M  V30 23 1 14 16
M  V30 END BOND
M  V30 END CTAB
M  END
>  <Molecule Name>


>  <status>
DISCONTINUED

>  <cas>
150812-12-7

>  <name>
EZOGABINE

>  <ID>
1506

>  <Smiles>
CCOC(Nc(ccc(NCc(cc1)ccc1F)c1)c1N)=O

$$$$

Actelion Java MolfileCreator 2.0

  0  0  0  0  0  0              0 V3000
M  V30 BEGIN CTAB
M  V30 COUNTS 23 23 0 0 0
M  V30 BEGIN ATOM
M  V30 1 O 2.598 1.0 0.0 0
M  V30 2 C 2.598 0.0 0.0 0
M  V30 3 O 3.4641 -0.5 0.0 0
M  V30 4 N 1.732 -0.5 0.0 0
M  V30 5 C 4.3301 0.0 0.0 0 CFG=2
M  V30 6 C 0.866 0.0 0.0 0
M  V30 7 O 5.1961 -0.5 0.0 0
M  V30 8 C 4.3301 1.0 0.0 0
M  V30 9 C 0.0 -0.5 0.0 0
M  V30 10 C 6.0621 0.0 0.0 0
M  V30 11 C -0.866 0.0 0.0 0
M  V30 12 C 0.0 -1.4999 0.0 0
M  V30 13 C 0.866 -1.0 0.0 0
M  V30 14 O 6.0621 0.9999 0.0 0
M  V30 15 C 6.9282 -0.5 0.0 0
M  V30 16 C -1.732 -0.4999 0.0 0
M  V30 17 C -0.866 -1.9999 0.0 0
M  V30 18 C 0.866 -2.0 0.0 0
M  V30 19 C 7.7942 0.0 0.0 0
M  V30 20 C 6.9282 -1.4999 0.0 0
M  V30 21 C -1.732 -1.4999 0.0 0
M  V30 22 O 0.0 -2.5 0.0 0
M  V30 23 O 1.732 -2.5 0.0 0 CHG=-1
M  V30 END ATOM
M  V30 BEGIN BOND
M  V30 1 2 1 2
M  V30 2 1 2 3
M  V30 3 1 2 4
M  V30 4 1 5 3 CFG=1
M  V30 5 1 4 6
M  V30 6 1 5 7
M  V30 7 1 5 8
M  V30 8 1 6 9
M  V30 9 1 7 10
M  V30 10 1 9 11
M  V30 11 1 9 12
M  V30 12 1 9 13
M  V30 13 2 10 14
M  V30 14 1 10 15
M  V30 15 1 11 16
M  V30 16 1 12 17
M  V30 17 1 13 18
M  V30 18 1 15 19
M  V30 19 1 15 20
M  V30 20 1 16 21
M  V30 21 2 18 22
M  V30 22 1 18 23
M  V30 23 1 17 21
M  V30 END BOND
M  V30 BEGIN COLLECTION
M  V30 MDLV30/STERAC1 ATOMS=(1 5)
M  V30 END COLLECTION
M  V30 END CTAB
M  END
>  <Molecule Name>


>  <status>
-

>  <cas>
478296-72-9

>  <name>
GABAPENTIN ENACARBIL

>  <ID>
1507

>  <Smiles>
CC(C)C(OC(C)OC(NCC1(CC([O-])=O)CCCCC1)=O)=O

$$$$

Actelion Java MolfileCreator 2.0

  0  0  0  0  0  0              0 V3000
M  V30 BEGIN CTAB
M  V30 COUNTS 23 23 0 0 0
M  V30 BEGIN ATOM
M  V30 1 O 2.598 1.0 0.0 0
M  V30 2 C 2.598 0.0 0.0 0
M  V30 3 O 3.4641 -0.5 0.0 0
M  V30 4 N 1.732 -0.5 0.0 0
M  V30 5 C 4.3301 0.0 0.0 0 CFG=2
M  V30 6 C 0.866 0.0 0.0 0
M  V30 7 O 5.1961 -0.5 0.0 0
M  V30 8 C 4.3301 1.0 0.0 0
M  V30 9 C 0.0 -0.5 0.0 0
M  V30 10 C 6.0621 0.0 0.0 0
M  V30 11 C -0.866 0.0 0.0 0
M  V30 12 C 0.0 -1.4999 0.0 0
M  V30 13 C 0.866 -1.0 0.0 0
M  V30 14 O 6.0621 0.9999 0.0 0
M  V30 15 C 6.9282 -0.5 0.0 0
M  V30 16 C -1.732 -0.4999 0.0 0
M  V30 17 C -0.866 -1.9999 0.0 0
M  V30 18 C 0.866 -2.0 0.0 0
M  V30 19 C 7.7942 0.0 0.0 0
M  V30 20 C 6.9282 -1.4999 0.0 0
M  V30 21 C -1.732 -1.4999 0.0 0
M  V30 22 O 0.0 -2.5 0.0 0
M  V30 23 O 1.732 -2.5 0.0 0 CHG=-1
M  V30 END ATOM
M  V30 BEGIN BOND
M  V30 1 2 1 2
M  V30 2 1 2 3
M  V30 3 1 2 4
M  V30 4 1 5 3 CFG=1
M  V30 5 1 4 6
M  V30 6 1 5 7
M  V30 7 1 5 8
M  V30 8 1 6 9
M  V30 9 1 7 10
M  V30 10 1 9 11
M  V30 11 1 9 12
M  V30 12 1 9 13
M  V30 13 2 10 14
M  V30 14 1 10 15
M  V30 15 1 11 16
M  V30 16 1 12 17
M  V30 17 1 13 18
M  V30 18 1 15 19
M  V30 19 1 15 20
M  V30 20 1 16 21
M  V30 21 2 18 22
M  V30 22 1 18 23
M  V30 23 1 17 21
M  V30 END BOND
M  V30 BEGIN COLLECTION
M  V30 MDLV30/STERAC1 ATOMS=(1 5)
M  V30 END COLLECTION
M  V30 END CTAB
M  END
>  <Molecule Name>


>  <status>
-

>  <cas>
478296-72-9

>  <name>
GABAPENTIN ENACARBIL

>  <ID>
1508

>  <Smiles>
CC(C)C(OC(C)OC(NCC1(CC([O-])=O)CCCCC1)=O)=O

$$$$

Actelion Java MolfileCreator 2.0

  0  0  0  0  0  0              0 V3000
M  V30 BEGIN CTAB
M  V30 COUNTS 30 33 0 0 0
M  V30 BEGIN ATOM
M  V30 1 Br 9.0932 -4.5 0.0 0
M  V30 2 C 9.0932 -3.0 0.0 0
M  V30 3 C 10.3923 -2.25 0.0 0
M  V30 4 C 7.7942 -2.25 0.0 0
M  V30 5 C 10.3923 -0.75 0.0 0
M  V30 6 C 7.7942 -0.75 0.0 0
M  V30 7 F 11.6913 0.0 0.0 0
M  V30 8 C 9.0932 0.0 0.0 0
M  V30 9 N 9.0932 1.5 0.0 0
M  V30 10 C 7.7942 2.25 0.0 0
M  V30 11 N 7.7942 3.7499 0.0 0
M  V30 12 C 6.4951 1.5 0.0 0
M  V30 13 C 6.4951 4.5 0.0 0
M  V30 14 C 5.1961 2.25 0.0 0
M  V30 15 C 6.4951 0.0 0.0 0
M  V30 16 N 5.1961 3.75 0.0 0
M  V30 17 C 3.8971 1.4999 0.0 0
M  V30 18 C 5.1961 -0.7499 0.0 0
M  V30 19 C 3.8971 0.0 0.0 0
M  V30 20 O 5.1961 -2.25 0.0 0
M  V30 21 O 2.598 -0.75 0.0 0
M  V30 22 C 6.4951 -2.9999 0.0 0
M  V30 23 C 1.299 0.0 0.0 0
M  V30 24 C 0.0 -0.75 0.0 0
M  V30 25 C -1.299 0.0 0.0 0
M  V30 26 C 0.0 -2.25 0.0 0
M  V30 27 C -2.598 -0.7499 0.0 0
M  V30 28 C -1.299 -2.9999 0.0 0
M  V30 29 N -2.598 -2.2499 0.0 0
M  V30 30 C -3.8971 -2.9999 0.0 0
M  V30 END ATOM
M  V30 BEGIN BOND
M  V30 1 1 1 2
M  V30 2 2 2 3
M  V30 3 1 2 4
M  V30 4 1 3 5
M  V30 5 2 4 6
M  V30 6 1 5 7
M  V30 7 2 5 8
M  V30 8 1 8 9
M  V30 9 1 9 10
M  V30 10 2 10 11
M  V30 11 1 10 12
M  V30 12 1 11 13
M  V30 13 1 12 14
M  V30 14 2 12 15
M  V30 15 2 13 16
M  V30 16 2 14 17
M  V30 17 1 15 18
M  V30 18 1 17 19
M  V30 19 1 18 20
M  V30 20 1 19 21
M  V30 21 1 20 22
M  V30 22 1 21 23
M  V30 23 1 23 24
M  V30 24 1 24 25
M  V30 25 1 24 26
M  V30 26 1 25 27
M  V30 27 1 26 28
M  V30 28 1 27 29
M  V30 29 1 29 30
M  V30 30 1 6 8
M  V30 31 1 14 16
M  V30 32 2 18 19
M  V30 33 1 28 29
M  V30 END BOND
M  V30 END CTAB
M  END
>  <Molecule Name>


>  <status>
-

>  <cas>
443913-73-3

>  <name>
VANDETANIB

>  <ID>
1509

>  <Smiles>
CN1CCC(COc(cc(c2c3)ncnc2Nc(ccc(Br)c2)c2F)c3OC)CC1

$$$$

Actelion Java MolfileCreator 2.0

  0  0  0  0  0  0              0 V3000
M  V30 BEGIN CTAB
M  V30 COUNTS 26 28 0 0 0
M  V30 BEGIN ATOM
M  V30 1 Cl 1.732 1.4999 0.0 0
M  V30 2 C 2.598 1.0 0.0 0
M  V30 3 C 2.598 0.0 0.0 0
M  V30 4 C 3.4641 1.4999 0.0 0
M  V30 5 N 1.732 -0.5 0.0 0
M  V30 6 C 3.4641 -0.5 0.0 0
M  V30 7 N 4.3301 1.0 0.0 0
M  V30 8 C 0.866 0.0 0.0 0
M  V30 9 Cl 3.4641 -1.5 0.0 0
M  V30 10 C 4.3301 0.0 0.0 0
M  V30 11 O 0.866 1.0 0.0 0
M  V30 12 C 0.0 -0.5 0.0 0
M  V30 13 C -0.866 0.0 0.0 0
M  V30 14 C 0.0 -1.5 0.0 0
M  V30 15 C -1.732 -0.4999 0.0 0
M  V30 16 C -0.866 -2.0 0.0 0
M  V30 17 O -2.598 0.0 0.0 0
M  V30 18 C -1.732 -1.4999 0.0 0
M  V30 19 C -2.598 1.0 0.0 0
M  V30 20 O -2.598 -1.9999 0.0 0
M  V30 21 C -3.4641 1.5 0.0 0
M  V30 22 C -3.4641 -1.4999 0.0 0
M  V30 23 C -3.9641 2.366 0.0 0
M  V30 24 C -4.4641 1.5 0.0 0
M  V30 25 F -3.4641 -0.4999 0.0 0
M  V30 26 F -4.3301 -1.9999 0.0 0
M  V30 END ATOM
M  V30 BEGIN BOND
M  V30 1 1 1 2
M  V30 2 2 2 3
M  V30 3 1 2 4
M  V30 4 1 3 5
M  V30 5 1 3 6
M  V30 6 2 4 7
M  V30 7 1 5 8
M  V30 8 1 6 9
M  V30 9 2 6 10
M  V30 10 2 8 11
M  V30 11 1 8 12
M  V30 12 2 12 13
M  V30 13 1 12 14
M  V30 14 1 13 15
M  V30 15 2 14 16
M  V30 16 1 15 17
M  V30 17 2 15 18
M  V30 18 1 17 19
M  V30 19 1 18 20
M  V30 20 1 19 21
M  V30 21 1 20 22
M  V30 22 1 21 23
M  V30 23 1 21 24
M  V30 24 1 22 25
M  V30 25 1 22 26
M  V30 26 1 7 10
M  V30 27 1 16 18
M  V30 28 1 23 24
M  V30 END BOND
M  V30 END CTAB
M  END
>  <Molecule Name>


>  <status>
-

>  <cas>
162401-32-3

>  <name>
ROFLUMILAST

>  <ID>
1510

>  <Smiles>
O=C(c(cc1)cc(OCC2CC2)c1OC(F)F)Nc(c(Cl)cnc1)c1Cl

$$$$

Actelion Java MolfileCreator 2.0

  0  0  0  0  0  0              0 V3000
M  V30 BEGIN CTAB
M  V30 COUNTS 33 37 0 0 0
M  V30 BEGIN ATOM
M  V30 1 O 17.5486 1.7009 0.0 0
M  V30 2 C 16.7986 3.0 0.0 0
M  V30 3 N 17.5486 4.299 0.0 0
M  V30 4 C 15.2986 3.0 0.0 0
M  V30 5 O 14.4169 4.2135 0.0 0
M  V30 6 C 14.4169 1.7864 0.0 0
M  V30 7 C 12.9903 3.75 0.0 0
M  V30 8 C 12.9903 2.2499 0.0 0
M  V30 9 C 11.6913 4.4999 0.0 0
M  V30 10 C 11.6913 1.5 0.0 0
M  V30 11 C 10.3923 3.7499 0.0 0
M  V30 12 C 10.3923 2.2499 0.0 0
M  V30 13 N 9.0932 1.4999 0.0 0
M  V30 14 C 7.7942 2.25 0.0 0
M  V30 15 C 9.0932 0.0 0.0 0
M  V30 16 C 6.4951 1.5 0.0 0
M  V30 17 C 7.7942 -0.75 0.0 0
M  V30 18 N 6.4951 0.0 0.0 0
M  V30 19 C 5.1961 -0.75 0.0 0
M  V30 20 C 3.8971 0.0 0.0 0
M  V30 21 C 2.598 -0.75 0.0 0
M  V30 22 C 1.299 0.0 0.0 0
M  V30 23 C 0.0 -0.75 0.0 0
M  V30 24 C -1.3703 -0.1398 0.0 0
M  V30 25 C -0.1567 -2.2417 0.0 0
M  V30 26 C -2.374 -1.2546 0.0 0
M  V30 27 C -1.8338 1.2866 0.0 0
M  V30 28 N -1.624 -2.5536 0.0 0
M  V30 29 C -3.8412 -0.9427 0.0 0
M  V30 30 C -3.301 1.5985 0.0 0
M  V30 31 C -4.3047 0.4838 0.0 0
M  V30 32 C -3.7645 3.0251 0.0 0
M  V30 33 N -4.2281 4.4517 0.0 0
M  V30 END ATOM
M  V30 BEGIN BOND
M  V30 1 2 1 2
M  V30 2 1 2 3
M  V30 3 1 2 4
M  V30 4 1 4 5
M  V30 5 2 4 6
M  V30 6 1 5 7
M  V30 7 1 6 8
M  V30 8 1 7 9
M  V30 9 1 8 10
M  V30 10 2 9 11
M  V30 11 2 10 12
M  V30 12 1 12 13
M  V30 13 1 13 14
M  V30 14 1 13 15
M  V30 15 1 14 16
M  V30 16 1 15 17
M  V30 17 1 16 18
M  V30 18 1 18 19
M  V30 19 1 19 20
M  V30 20 1 20 21
M  V30 21 1 21 22
M  V30 22 1 22 23
M  V30 23 1 23 24
M  V30 24 2 23 25
M  V30 25 2 24 26
M  V30 26 1 24 27
M  V30 27 1 25 28
M  V30 28 1 26 29
M  V30 29 2 27 30
M  V30 30 2 29 31
M  V30 31 1 30 32
M  V30 32 3 32 33
M  V30 33 2 7 8
M  V30 34 1 11 12
M  V30 35 1 17 18
M  V30 36 1 26 28
M  V30 37 1 30 31
M  V30 END BOND
M  V30 END CTAB
M  END
>  <Molecule Name>


>  <status>
-

>  <cas>
163521-12-8

>  <name>
VILAZODONE

>  <ID>
1511

>  <Smiles>
NC(c1cc(cc(cc2)N3CCN(CCCCc4c[nH]c(cc5)c4cc5C#N)CC3)c2o1)=O

$$$$

Actelion Java MolfileCreator 2.0

  0  0  0  0  0  0              0 V3000
M  V30 BEGIN CTAB
M  V30 COUNTS 42 47 0 0 0
M  V30 BEGIN ATOM
M  V30 1 O 6.0412 -0.7318 0.0 0
M  V30 2 C 5.0467 -0.8364 0.0 0
M  V30 3 O 4.3776 -0.0932 0.0 0
M  V30 4 O 4.5467 -1.7024 0.0 0
M  V30 5 C 3.4641 -0.5 0.0 0
M  V30 6 C 3.5686 -1.4945 0.0 0
M  V30 7 C 2.598 0.0 0.0 0
M  V30 8 C 2.8254 -2.1636 0.0 0
M  V30 9 O 1.732 -0.5 0.0 0
M  V30 10 C 0.866 0.0 0.0 0
M  V30 11 O 0.866 1.0 0.0 0
M  V30 12 C 0.0 -0.5 0.0 0
M  V30 13 C -0.866 0.0 0.0 0
M  V30 14 C 0.0 -1.4999 0.0 0
M  V30 15 N -1.0739 0.9781 0.0 0
M  V30 16 C -1.732 -0.4999 0.0 0
M  V30 17 C -0.866 -1.9999 0.0 0
M  V30 18 C -2.0684 1.0826 0.0 0
M  V30 19 C -0.4048 1.7212 0.0 0
M  V30 20 N -2.4751 0.1691 0.0 0
M  V30 21 C -1.732 -1.4999 0.0 0
M  V30 22 O -2.5684 1.9487 0.0 0
M  V30 23 C -0.7138 2.6723 0.0 0
M  V30 24 C -3.5684 1.9487 0.0 0
M  V30 25 C -0.0446 3.4154 0.0 0
M  V30 26 C -1.6919 2.8802 0.0 0
M  V30 27 C -4.0684 2.8147 0.0 0
M  V30 28 C -0.3537 4.3665 0.0 0
M  V30 29 C -2.0009 3.8313 0.0 0
M  V30 30 C -1.3318 4.5744 0.0 0
M  V30 31 C -1.6408 5.5255 0.0 0
M  V30 32 C -0.9717 6.2686 0.0 0
M  V30 33 C -2.619 5.7334 0.0 0
M  V30 34 C 0.0064 6.0607 0.0 0
M  V30 35 C -1.2807 7.2197 0.0 0
M  V30 36 C -2.928 6.6844 0.0 0
M  V30 37 N 0.4131 5.1472 0.0 0
M  V30 38 N 0.7495 6.7298 0.0 0
M  V30 39 C -2.2589 7.4276 0.0 0
M  V30 40 O 1.4076 5.2517 0.0 0
M  V30 41 C 1.6155 6.2298 0.0 0
M  V30 42 O 2.5291 6.6366 0.0 0
M  V30 END ATOM
M  V30 BEGIN BOND
M  V30 1 2 1 2
M  V30 2 1 2 3
M  V30 3 1 2 4
M  V30 4 1 3 5
M  V30 5 1 4 6
M  V30 6 1 5 7
M  V30 7 1 6 8
M  V30 8 1 7 9
M  V30 9 1 9 10
M  V30 10 2 10 11
M  V30 11 1 10 12
M  V30 12 2 12 13
M  V30 13 1 12 14
M  V30 14 1 13 15
M  V30 15 1 13 16
M  V30 16 2 14 17
M  V30 17 1 15 18
M  V30 18 1 15 19
M  V30 19 1 16 20
M  V30 20 2 16 21
M  V30 21 1 18 22
M  V30 22 1 19 23
M  V30 23 1 22 24
M  V30 24 2 23 25
M  V30 25 1 23 26
M  V30 26 1 24 27
M  V30 27 1 25 28
M  V30 28 2 26 29
M  V30 29 2 28 30
M  V30 30 1 30 31
M  V30 31 2 31 32
M  V30 32 1 31 33
M  V30 33 1 32 34
M  V30 34 1 32 35
M  V30 35 2 33 36
M  V30 36 2 34 37
M  V30 37 1 34 38
M  V30 38 2 35 39
M  V30 39 1 37 40
M  V30 40 1 38 41
M  V30 41 2 41 42
M  V30 42 2 5 6
M  V30 43 1 17 21
M  V30 44 2 18 20
M  V30 45 1 29 30
M  V30 46 1 36 39
M  V30 47 1 40 41
M  V30 END BOND
M  V30 END CTAB
M  END
>  <Molecule Name>


>  <status>
-

>  <cas>
863031-21-4

>  <name>
AZILSARTAN KAMEDOXOMIL

>  <ID>
1512

>  <Smiles>
CCOc1nc2cccc(C(OCC(O3)=C(C)OC3=O)=O)c2n1Cc(cc1)ccc1-c(cccc1)c1C(N1)=NOC1=O

$$$$

Actelion Java MolfileCreator 2.0

  0  0  0  0  0  0              0 V3000
M  V30 BEGIN CTAB
M  V30 COUNTS 35 39 0 0 0
M  V30 BEGIN ATOM
M  V30 1 O 2.598 1.0 0.0 0
M  V30 2 C 2.598 0.0 0.0 0
M  V30 3 N 1.732 -0.5 0.0 0
M  V30 4 N 3.4641 -0.4999 0.0 0
M  V30 5 C 1.732 -1.5 0.0 0
M  V30 6 C 0.866 0.0 0.0 0
M  V30 7 C 3.4641 -1.4999 0.0 0
M  V30 8 C 4.3301 0.0 0.0 0
M  V30 9 O 0.866 -2.0 0.0 0
M  V30 10 C 2.598 -1.9999 0.0 0
M  V30 11 C 0.0 -0.5 0.0 0
M  V30 12 N 4.2072 -2.1691 0.0 0
M  V30 13 N 2.8059 -2.9781 0.0 0
M  V30 14 N -0.866 0.0 0.0 0
M  V30 15 N 0.0 -1.4999 0.0 0
M  V30 16 C 3.8005 -3.0826 0.0 0
M  V30 17 C 2.1368 -3.7212 0.0 0
M  V30 18 C -1.732 -0.4999 0.0 0
M  V30 19 C -0.866 -1.9999 0.0 0
M  V30 20 N 4.3005 -3.9487 0.0 0
M  V30 21 C 2.4458 -4.6723 0.0 0
M  V30 22 C -1.732 -1.4999 0.0 0
M  V30 23 C -2.598 0.0 0.0 0
M  V30 24 C -0.866 -2.9999 0.0 0
M  V30 25 C 5.3005 -3.9487 0.0 0
M  V30 26 C 3.8005 -4.8147 0.0 0
M  V30 27 C 2.7548 -5.6234 0.0 0
M  V30 28 C -2.598 -1.9999 0.0 0
M  V30 29 C -3.4641 -0.4999 0.0 0
M  V30 30 C 5.8005 -4.8147 0.0 0 CFG=1
M  V30 31 C 4.3005 -5.6807 0.0 0
M  V30 32 C 3.0639 -6.5744 0.0 0
M  V30 33 C -3.4641 -1.4999 0.0 0
M  V30 34 N 6.8005 -4.8147 0.0 0
M  V30 35 C 5.3005 -5.6807 0.0 0
M  V30 END ATOM
M  V30 BEGIN BOND
M  V30 1 2 1 2
M  V30 2 1 2 3
M  V30 3 1 2 4
M  V30 4 1 3 5
M  V30 5 1 3 6
M  V30 6 1 4 7
M  V30 7 1 4 8
M  V30 8 2 5 9
M  V30 9 1 5 10
M  V30 10 1 6 11
M  V30 11 1 7 12
M  V30 12 1 10 13
M  V30 13 2 11 14
M  V30 14 1 11 15
M  V30 15 2 12 16
M  V30 16 1 13 17
M  V30 17 1 14 18
M  V30 18 2 15 19
M  V30 19 1 16 20
M  V30 20 1 17 21
M  V30 21 1 18 22
M  V30 22 2 18 23
M  V30 23 1 19 24
M  V30 24 1 20 25
M  V30 25 1 20 26
M  V30 26 3 21 27
M  V30 27 2 22 28
M  V30 28 1 23 29
M  V30 29 1 30 25
M  V30 30 1 26 31
M  V30 31 1 27 32
M  V30 32 1 28 33
M  V30 33 1 30 34 CFG=1
M  V30 34 1 30 35
M  V30 35 2 7 10
M  V30 36 1 13 16
M  V30 37 1 19 22
M  V30 38 2 29 33
M  V30 39 1 31 35
M  V30 END BOND
M  V30 BEGIN COLLECTION
M  V30 MDLV30/STERAC1 ATOMS=(1 30)
M  V30 END COLLECTION
M  V30 END CTAB
M  END
>  <Molecule Name>


>  <status>
-

>  <cas>
668270-12-0

>  <name>
LINAGLIPTIN

>  <ID>
1513

>  <Smiles>
Cc1nc(CN(C(c(n2CC#CC)c(N3C)nc2N(CCC2)CC2N)=O)C3=O)nc2ccccc12

$$$$
_c001
Actelion Java MolfileCreator 2.0

  0  0  0  0  0  0              0 V3000
M  V30 BEGIN CTAB
M  V30 COUNTS 72 75 0 0 0
M  V30 BEGIN ATOM
M  V30 1 Cl -1.732 -15.4999 0.0 0
M  V30 2 C -0.866 -14.9999 0.0 0
M  V30 3 C 0.0 -15.4999 0.0 0
M  V30 4 C -0.866 -13.9999 0.0 0
M  V30 5 O 0.0 -16.4999 0.0 0
M  V30 6 C 0.866 -14.9999 0.0 0
M  V30 7 O -1.732 -13.4999 0.0 0
M  V30 8 C 0.0 -13.4999 0.0 0
M  V30 9 Cl 1.732 -15.5 0.0 0
M  V30 10 C 0.866 -13.9999 0.0 0
M  V30 11 C 0.0 -12.4999 0.0 0
M  V30 12 C 1.732 -13.4999 0.0 0
M  V30 13 O -0.866 -11.9999 0.0 0
M  V30 14 O 0.866 -11.9999 0.0 0
M  V30 15 C 1.732 -12.4999 0.0 0
M  V30 16 C 0.866 -10.9999 0.0 0 CFG=2
M  V30 17 C 1.732 -10.4999 0.0 0 CFG=1
M  V30 18 C 0.0 -10.4999 0.0 0 CFG=1
M  V30 19 O 2.598 -10.9999 0.0 0
M  V30 20 C 1.732 -9.5 0.0 0 CFG=1
M  V30 21 O 0.0 -9.4999 0.0 0
M  V30 22 C -0.866 -10.9999 0.0 0
M  V30 23 O 2.598 -9.0 0.0 0
M  V30 24 C 0.866 -8.9999 0.0 0 CFG=2
M  V30 25 C 2.598 -7.9999 0.0 0
M  V30 26 O 0.866 -7.9999 0.0 0
M  V30 27 C 1.732 -7.4999 0.0 0
M  V30 28 C 1.732 -6.4999 0.0 0
M  V30 29 C 0.866 -5.9999 0.0 0
M  V30 30 C 2.696 -6.0901 0.0 0
M  V30 31 O 0.0 -6.4999 0.0 0
M  V30 32 O 0.866 -4.9999 0.0 0
M  V30 33 C 3.4641 -6.4999 0.0 0
M  V30 34 C 1.732 -4.4999 0.0 0 CFG=1
M  V30 35 C 4.3301 -5.9999 0.0 0
M  V30 36 C 2.598 -4.9999 0.0 0 CFG=1
M  V30 37 C 1.732 -3.4999 0.0 0
M  V30 38 C 5.1961 -6.4999 0.0 0
M  V30 39 O 2.4261 -5.8417 0.0 0
M  V30 40 C 3.2873 -4.3232 0.0 0
M  V30 41 C 2.598 -2.9999 0.0 0
M  V30 42 C 6.0621 -6.0 0.0 0 CFG=1
M  V30 43 C 3.4641 -3.4999 0.0 0
M  V30 44 O 6.9282 -6.5 0.0 0
M  V30 45 C 6.0621 -4.9999 0.0 0
M  V30 46 C 4.3301 -2.9999 0.0 0
M  V30 47 C 3.5524 -4.5883 0.0 0
M  V30 48 C 6.9282 -4.5 0.0 0
M  V30 49 C 5.1961 -4.4999 0.0 0
M  V30 50 C 5.1961 -3.5 0.0 0
M  V30 51 C 6.9282 -3.4999 0.0 0 CFG=2
M  V30 52 C 6.0621 -3.0 0.0 0 CFG=2
M  V30 53 C 5.0193 -4.6767 0.0 0
M  V30 54 C 7.7942 -2.9999 0.0 0
M  V30 55 O 6.0621 -1.9999 0.0 0
M  V30 56 C 8.6602 -3.4999 0.0 0
M  V30 57 C 6.9282 -1.5 0.0 0 CFG=1
M  V30 58 O 7.7942 -2.0 0.0 0
M  V30 59 C 6.9282 -0.5 0.0 0 CFG=2
M  V30 60 C 8.6602 -1.5 0.0 0
M  V30 61 O 6.0621 0.0 0.0 0
M  V30 62 C 7.7942 0.0 0.0 0 CFG=1
M  V30 63 C 8.6602 -0.5 0.0 0 CFG=1
M  V30 64 C 9.1602 -2.366 0.0 0
M  V30 65 C 9.6602 -1.4999 0.0 0
M  V30 66 O 7.7942 0.9999 0.0 0
M  V30 67 O 9.5262 0.0 0.0 0
M  V30 68 C 9.5262 0.9999 0.0 0
M  V30 69 O 8.6602 1.4999 0.0 0
M  V30 70 C 10.3923 1.4999 0.0 0
M  V30 71 C 11.2583 0.9999 0.0 0
M  V30 72 C 10.3923 2.4999 0.0 0
M  V30 END ATOM
M  V30 BEGIN BOND
M  V30 1 1 1 2
M  V30 2 2 2 3
M  V30 3 1 2 4
M  V30 4 1 3 5
M  V30 5 1 3 6
M  V30 6 1 4 7
M  V30 7 2 4 8
M  V30 8 1 6 9
M  V30 9 2 6 10
M  V30 10 1 8 11
M  V30 11 1 10 12
M  V30 12 2 11 13
M  V30 13 1 11 14
M  V30 14 1 12 15
M  V30 15 1 16 14 CFG=1
M  V30 16 1 17 16
M  V30 17 1 18 16
M  V30 18 1 17 19 CFG=3
M  V30 19 1 20 17
M  V30 20 1 18 21
M  V30 21 1 18 22 CFG=3
M  V30 22 1 20 23 CFG=3
M  V30 23 1 24 20
M  V30 24 1 23 25
M  V30 25 1 24 26 CFG=3
M  V30 26 1 26 27
M  V30 27 1 27 28
M  V30 28 1 28 29
M  V30 29 2 28 30
M  V30 30 2 29 31
M  V30 31 1 29 32
M  V30 32 1 30 33
M  V30 33 1 34 32 CFG=3
M  V30 34 2 33 35
M  V30 35 1 36 34
M  V30 36 1 34 37
M  V30 37 1 35 38
M  V30 38 1 36 39 CFG=3
M  V30 39 1 36 40
M  V30 40 1 37 41
M  V30 41 1 42 38
M  V30 42 2 41 43
M  V30 43 1 42 44 CFG=3
M  V30 44 1 42 45
M  V30 45 1 43 46
M  V30 46 1 43 47
M  V30 47 2 45 48
M  V30 48 1 45 49
M  V30 49 2 46 50
M  V30 50 1 51 48
M  V30 51 1 52 50
M  V30 52 1 50 53
M  V30 53 1 51 54 CFG=3
M  V30 54 1 52 55 CFG=1
M  V30 55 1 54 56
M  V30 56 1 57 55 CFG=3
M  V30 57 1 57 58
M  V30 58 1 59 57
M  V30 59 1 58 60
M  V30 60 1 59 61 CFG=3
M  V30 61 1 62 59
M  V30 62 1 63 60
M  V30 63 1 60 64
M  V30 64 1 60 65
M  V30 65 1 62 66 CFG=3
M  V30 66 1 63 67 CFG=1
M  V30 67 1 67 68
M  V30 68 2 68 69
M  V30 69 1 68 70
M  V30 70 1 70 71
M  V30 71 1 70 72
M  V30 72 1 8 10
M  V30 73 1 21 24
M  V30 74 1 51 52
M  V30 75 1 62 63
M  V30 END BOND
M  V30 BEGIN COLLECTION
M  V30 MDLV30/STERAC1 ATOMS=(14 16 17 18 20 24 34 36 42 51 52 57 59 62 63)
M  V30 END COLLECTION
M  V30 END CTAB
M  END
>  <Molecule Name>
_c001

>  <status>
-

>  <cas>
873857-62-6

>  <name>
FIDAXOMICIN

>  <ID>
1514

>  <Smiles>
CC[C@@H]([C@@H](/C(/C)=C/C(/C)=C/C[C@H]([C@H](C)O)OC(/C(/CO[C@H]([C@@H]([C@@H]1O)OC)O[C@@H](C)[C@@H]1OC(c(c(CC)c(c(O)c1Cl)Cl)c1O)=O)=C/C=C/C1)=O)O[C@H]([C@@H]([C@@H]2O)O)OC(C)(C)[C@@H]2OC(C(C)C)=O)/C=C(\C)/[C@@H]1O

$$$$

Actelion Java MolfileCreator 2.0

  0  0  0  0  0  0              0 V3000
M  V30 BEGIN CTAB
M  V30 COUNTS 49 53 0 0 0
M  V30 BEGIN ATOM
M  V30 1 O 5.1961 2.5 0.0 0
M  V30 2 C 4.3301 3.0 0.0 0
M  V30 3 N 3.4641 2.5 0.0 0
M  V30 4 C 4.3301 4.0 0.0 0
M  V30 5 C 3.4641 1.5 0.0 0 CFG=2
M  V30 6 N 5.1961 4.5 0.0 0
M  V30 7 C 3.4641 4.5 0.0 0
M  V30 8 C 2.598 1.0 0.0 0
M  V30 9 C 4.3301 1.0 0.0 0
M  V30 10 C 5.1961 5.5 0.0 0
M  V30 11 N 3.4641 5.5 0.0 0
M  V30 12 O 1.732 1.5 0.0 0
M  V30 13 N 2.598 0.0 0.0 0
M  V30 14 C 5.1961 1.5 0.0 0
M  V30 15 C 4.3301 0.0 0.0 0
M  V30 16 C 4.3301 6.0 0.0 0
M  V30 17 C 1.732 -0.5 0.0 0 CFG=2
M  V30 18 C 6.0621 1.0 0.0 0
M  V30 19 C 5.1961 -0.4999 0.0 0
M  V30 20 C 0.866 0.0 0.0 0
M  V30 21 C 1.732 -1.5 0.0 0
M  V30 22 C 6.0621 0.0 0.0 0
M  V30 23 O 0.866 1.0 0.0 0
M  V30 24 N 0.0 -0.5 0.0 0
M  V30 25 C 2.732 -1.4999 0.0 0
M  V30 26 C 1.732 -2.5 0.0 0
M  V30 27 C 0.732 -1.5 0.0 0
M  V30 28 C -0.9135 -0.0932 0.0 0 CFG=2
M  V30 29 C -0.1045 -1.4945 0.0 0
M  V30 30 C -1.1214 0.8848 0.0 0
M  V30 31 C -1.5826 -0.8364 0.0 0 CFG=2
M  V30 32 C -1.0826 -1.7024 0.0 0 CFG=1
M  V30 33 O -2.0725 1.1939 0.0 0
M  V30 34 N -0.3783 1.554 0.0 0
M  V30 35 C -2.5608 -1.0443 0.0 0
M  V30 36 C -1.7518 -2.4455 0.0 0
M  V30 37 C -0.5862 2.5321 0.0 0 CFG=2
M  V30 38 C -2.6653 -2.0388 0.0 0
M  V30 39 C 0.1569 3.2012 0.0 0
M  V30 40 C -1.5372 2.8411 0.0 0
M  V30 41 O 1.1079 2.8922 0.0 0
M  V30 42 C -0.0509 4.1794 0.0 0
M  V30 43 C -1.7451 3.8193 0.0 0
M  V30 44 O -1.002 4.4884 0.0 0
M  V30 45 N 0.6921 4.8485 0.0 0
M  V30 46 C -2.6962 4.1283 0.0 0
M  V30 47 C 0.4842 5.8267 0.0 0
M  V30 48 C 0.7932 6.7777 0.0 0
M  V30 49 C -0.1848 6.5698 0.0 0
M  V30 END ATOM
M  V30 BEGIN BOND
M  V30 1 2 1 2
M  V30 2 1 2 3
M  V30 3 1 2 4
M  V30 4 1 5 3 CFG=1
M  V30 5 2 4 6
M  V30 6 1 4 7
M  V30 7 1 5 8
M  V30 8 1 5 9
M  V30 9 1 6 10
M  V30 10 2 7 11
M  V30 11 2 8 12
M  V30 12 1 8 13
M  V30 13 1 9 14
M  V30 14 1 9 15
M  V30 15 2 10 16
M  V30 16 1 17 13 CFG=1
M  V30 17 1 14 18
M  V30 18 1 15 19
M  V30 19 1 17 20
M  V30 20 1 17 21
M  V30 21 1 18 22
M  V30 22 2 20 23
M  V30 23 1 20 24
M  V30 24 1 21 25
M  V30 25 1 21 26
M  V30 26 1 21 27
M  V30 27 1 28 24
M  V30 28 1 24 29
M  V30 29 1 28 30 CFG=1
M  V30 30 1 31 28
M  V30 31 1 32 29 CFG=3
M  V30 32 2 30 33
M  V30 33 1 30 34
M  V30 34 1 31 35 CFG=3
M  V30 35 1 32 36
M  V30 36 1 37 34 CFG=1
M  V30 37 1 35 38
M  V30 38 1 37 39
M  V30 39 1 37 40
M  V30 40 2 39 41
M  V30 41 1 39 42
M  V30 42 1 40 43
M  V30 43 2 42 44
M  V30 44 1 42 45
M  V30 45 1 43 46
M  V30 46 1 45 47
M  V30 47 1 47 48
M  V30 48 1 47 49
M  V30 49 1 11 16
M  V30 50 1 19 22
M  V30 51 1 31 32
M  V30 52 1 36 38
M  V30 53 1 48 49
M  V30 END BOND
M  V30 BEGIN COLLECTION
M  V30 MDLV30/STERAC1 ATOMS=(6 5 17 28 31 32 37)
M  V30 END COLLECTION
M  V30 END CTAB
M  END
>  <Molecule Name>


>  <status>
DISCONTINUED

>  <cas>
402957-28-2

>  <name>
TELAPREVIR

>  <ID>
1515

>  <Smiles>
CCC[C@@H](C(C(NC1CC1)=O)=O)NC([C@H]([C@@H](CCC1)[C@@H]1C1)N1C([C@H](C(C)(C)C)NC([C@H](C1CCCCC1)NC(c1nccnc1)=O)=O)=O)=O

$$$$

Actelion Java MolfileCreator 2.0

  0  0  0  0  0  0              0 V3000
M  V30 BEGIN CTAB
M  V30 COUNTS 28 30 0 0 0
M  V30 BEGIN ATOM
M  V30 1 N 5.1961 -2.4999 0.0 0
M  V30 2 C 4.3301 -1.9999 0.0 0
M  V30 3 C 3.4641 -1.4999 0.0 0
M  V30 4 C 3.4641 -0.5 0.0 0
M  V30 5 C 2.598 -1.9999 0.0 0
M  V30 6 C 2.598 0.0 0.0 0
M  V30 7 C 1.732 -1.5 0.0 0
M  V30 8 C 1.732 -0.5 0.0 0
M  V30 9 N 0.866 0.0 0.0 0
M  V30 10 C 0.0 -0.5 0.0 0
M  V30 11 N -0.866 0.0 0.0 0
M  V30 12 N 0.0 -1.4999 0.0 0
M  V30 13 C -1.732 -0.4999 0.0 0
M  V30 14 C -0.866 -1.9999 0.0 0
M  V30 15 N -2.598 0.0 0.0 0
M  V30 16 C -1.732 -1.4999 0.0 0
M  V30 17 C -3.4641 -0.4999 0.0 0
M  V30 18 C -4.3301 0.0 0.0 0
M  V30 19 C -3.4641 -1.4999 0.0 0
M  V30 20 C -5.1961 -0.4999 0.0 0
M  V30 21 C -4.3301 1.0 0.0 0
M  V30 22 C -4.3301 -1.9999 0.0 0
M  V30 23 C -2.598 -1.9999 0.0 0
M  V30 24 C -5.1961 -1.4999 0.0 0
M  V30 25 C -6.0621 -1.9999 0.0 0
M  V30 26 C -6.0621 -2.9999 0.0 0
M  V30 27 C -6.9282 -3.4999 0.0 0
M  V30 28 N -7.7942 -3.9999 0.0 0
M  V30 END ATOM
M  V30 BEGIN BOND
M  V30 1 3 1 2
M  V30 2 1 2 3
M  V30 3 2 3 4
M  V30 4 1 3 5
M  V30 5 1 4 6
M  V30 6 2 5 7
M  V30 7 2 6 8
M  V30 8 1 8 9
M  V30 9 1 9 10
M  V30 10 2 10 11
M  V30 11 1 10 12
M  V30 12 1 11 13
M  V30 13 2 12 14
M  V30 14 1 13 15
M  V30 15 2 13 16
M  V30 16 1 15 17
M  V30 17 2 17 18
M  V30 18 1 17 19
M  V30 19 1 18 20
M  V30 20 1 18 21
M  V30 21 2 19 22
M  V30 22 1 19 23
M  V30 23 2 20 24
M  V30 24 1 24 25
M  V30 25 2 25 26
M  V30 26 1 26 27
M  V30 27 3 27 28
M  V30 28 1 7 8
M  V30 29 1 14 16
M  V30 30 1 22 24
M  V30 END BOND
M  V30 END CTAB
M  END
>  <Molecule Name>


>  <status>
-

>  <cas>
500287-72-9

>  <name>
RILPIVIRINE

>  <ID>
1516

>  <Smiles>
Cc1cc(/C=C/C#N)cc(C)c1Nc1ccnc(Nc(cc2)ccc2C#N)n1

$$$$

Actelion Java MolfileCreator 2.0

  0  0  0  0  0  0              0 V3000
M  V30 BEGIN CTAB
M  V30 COUNTS 37 39 0 0 0
M  V30 BEGIN ATOM
M  V30 1 O 3.8971 0.0 0.0 0
M  V30 2 C 3.8971 1.5 0.0 0
M  V30 3 N 5.1961 2.25 0.0 0
M  V30 4 N 2.598 2.25 0.0 0
M  V30 5 C 6.4951 1.5 0.0 0
M  V30 6 C 1.299 1.5 0.0 0 CFG=2
M  V30 7 C 7.2451 2.799 0.0 0
M  V30 8 C 7.7942 0.75 0.0 0
M  V30 9 C 5.7451 0.2009 0.0 0
M  V30 10 C 1.299 0.0 0.0 0
M  V30 11 C 0.0 2.25 0.0 0
M  V30 12 O 2.598 -0.75 0.0 0
M  V30 13 N 0.0 -0.75 0.0 0
M  V30 14 C 0.75 3.549 0.0 0
M  V30 15 C -1.299 3.0 0.0 0
M  V30 16 C -0.75 0.9509 0.0 0
M  V30 17 C -0.1567 -2.2417 0.0 0 CFG=2
M  V30 18 C -1.3703 -0.1398 0.0 0
M  V30 19 C 0.9579 -3.2454 0.0 0
M  V30 20 C -1.624 -2.5536 0.0 0 CFG=2
M  V30 21 C -2.374 -1.2546 0.0 0 CFG=1
M  V30 22 O 2.3845 -2.7819 0.0 0
M  V30 23 N 0.646 -4.7127 0.0 0
M  V30 24 C -3.124 -2.5536 0.0 0
M  V30 25 C 1.7607 -5.7164 0.0 0 CFG=2
M  V30 26 C -4.6239 -2.5536 0.0 0
M  V30 27 C -3.8739 -3.8526 0.0 0
M  V30 28 C 3.1873 -5.2528 0.0 0
M  V30 29 C 1.4489 -7.1836 0.0 0
M  V30 30 O 3.4992 -3.7856 0.0 0
M  V30 31 C 4.302 -6.2565 0.0 0
M  V30 32 C 0.0223 -7.6471 0.0 0
M  V30 33 O 3.9902 -7.7237 0.0 0
M  V30 34 N 5.7286 -5.793 0.0 0
M  V30 35 C -0.6586 -8.9836 0.0 0
M  V30 36 C -1.3141 -6.9661 0.0 0
M  V30 37 C -1.9951 -8.3026 0.0 0
M  V30 END ATOM
M  V30 BEGIN BOND
M  V30 1 2 1 2
M  V30 2 1 2 3
M  V30 3 1 2 4
M  V30 4 1 3 5
M  V30 5 1 6 4 CFG=3
M  V30 6 1 5 7
M  V30 7 1 5 8
M  V30 8 1 5 9
M  V30 9 1 6 10
M  V30 10 1 6 11
M  V30 11 2 10 12
M  V30 12 1 10 13
M  V30 13 1 11 14
M  V30 14 1 11 15
M  V30 15 1 11 16
M  V30 16 1 17 13
M  V30 17 1 13 18
M  V30 18 1 17 19 CFG=3
M  V30 19 1 20 17
M  V30 20 1 21 18 CFG=1
M  V30 21 2 19 22
M  V30 22 1 19 23
M  V30 23 1 20 24 CFG=1
M  V30 24 1 25 23 CFG=3
M  V30 25 1 24 26
M  V30 26 1 24 27
M  V30 27 1 25 28
M  V30 28 1 25 29
M  V30 29 2 28 30
M  V30 30 1 28 31
M  V30 31 1 29 32
M  V30 32 2 31 33
M  V30 33 1 31 34
M  V30 34 1 32 35
M  V30 35 1 32 36
M  V30 36 1 35 37
M  V30 37 1 20 21
M  V30 38 1 21 24
M  V30 39 1 36 37
M  V30 END BOND
M  V30 BEGIN COLLECTION
M  V30 MDLV30/STERAC1 ATOMS=(5 6 17 20 21 25)
M  V30 END COLLECTION
M  V30 END CTAB
M  END
>  <Molecule Name>


>  <status>
DISCONTINUED

>  <cas>
394730-60-0

>  <name>
BOCEPREVIR

>  <ID>
1517

>  <Smiles>
CC(C)(C)[C@@H](C(N(C[C@@H]1C(C)(C)[C@H]11)[C@@H]1C(N[C@@H](CC1CCC1)C(C(N)=O)=O)=O)=O)NC(NC(C)(C)C)=O

$$$$

Actelion Java MolfileCreator 2.0

  0  0  0  0  0  0              0 V3000
M  V30 BEGIN CTAB
M  V30 COUNTS 37 39 0 0 0
M  V30 BEGIN ATOM
M  V30 1 O 3.8971 0.0 0.0 0
M  V30 2 C 3.8971 1.5 0.0 0
M  V30 3 N 5.1961 2.25 0.0 0
M  V30 4 N 2.598 2.25 0.0 0
M  V30 5 C 6.4951 1.5 0.0 0
M  V30 6 C 1.299 1.5 0.0 0 CFG=2
M  V30 7 C 7.2451 2.799 0.0 0
M  V30 8 C 7.7942 0.75 0.0 0
M  V30 9 C 5.7451 0.2009 0.0 0
M  V30 10 C 1.299 0.0 0.0 0
M  V30 11 C 0.0 2.25 0.0 0
M  V30 12 O 2.598 -0.75 0.0 0
M  V30 13 N 0.0 -0.75 0.0 0
M  V30 14 C 0.75 3.549 0.0 0
M  V30 15 C -1.299 3.0 0.0 0
M  V30 16 C -0.75 0.9509 0.0 0
M  V30 17 C -0.1567 -2.2417 0.0 0 CFG=2
M  V30 18 C -1.3703 -0.1398 0.0 0
M  V30 19 C 0.9579 -3.2454 0.0 0
M  V30 20 C -1.624 -2.5536 0.0 0 CFG=2
M  V30 21 C -2.374 -1.2546 0.0 0 CFG=1
M  V30 22 O 2.3845 -2.7819 0.0 0
M  V30 23 N 0.646 -4.7127 0.0 0
M  V30 24 C -3.124 -2.5536 0.0 0
M  V30 25 C 1.7607 -5.7164 0.0 0 CFG=1
M  V30 26 C -4.6239 -2.5536 0.0 0
M  V30 27 C -3.8739 -3.8526 0.0 0
M  V30 28 C 3.1873 -5.2528 0.0 0
M  V30 29 C 1.4489 -7.1836 0.0 0
M  V30 30 O 3.4992 -3.7856 0.0 0
M  V30 31 C 4.302 -6.2565 0.0 0
M  V30 32 C 0.0223 -7.6471 0.0 0
M  V30 33 O 3.9902 -7.7237 0.0 0
M  V30 34 N 5.7286 -5.793 0.0 0
M  V30 35 C -0.6586 -8.9836 0.0 0
M  V30 36 C -1.3141 -6.9661 0.0 0
M  V30 37 C -1.9951 -8.3026 0.0 0
M  V30 END ATOM
M  V30 BEGIN BOND
M  V30 1 2 1 2
M  V30 2 1 2 3
M  V30 3 1 2 4
M  V30 4 1 3 5
M  V30 5 1 6 4 CFG=3
M  V30 6 1 5 7
M  V30 7 1 5 8
M  V30 8 1 5 9
M  V30 9 1 6 10
M  V30 10 1 6 11
M  V30 11 2 10 12
M  V30 12 1 10 13
M  V30 13 1 11 14
M  V30 14 1 11 15
M  V30 15 1 11 16
M  V30 16 1 17 13
M  V30 17 1 13 18
M  V30 18 1 17 19 CFG=3
M  V30 19 1 20 17
M  V30 20 1 21 18 CFG=1
M  V30 21 2 19 22
M  V30 22 1 19 23
M  V30 23 1 20 24 CFG=1
M  V30 24 1 25 23 CFG=1
M  V30 25 1 24 26
M  V30 26 1 24 27
M  V30 27 1 25 28
M  V30 28 1 25 29
M  V30 29 2 28 30
M  V30 30 1 28 31
M  V30 31 1 29 32
M  V30 32 2 31 33
M  V30 33 1 31 34
M  V30 34 1 32 35
M  V30 35 1 32 36
M  V30 36 1 35 37
M  V30 37 1 20 21
M  V30 38 1 21 24
M  V30 39 1 36 37
M  V30 END BOND
M  V30 BEGIN COLLECTION
M  V30 MDLV30/STERAC1 ATOMS=(5 6 17 20 21 25)
M  V30 END COLLECTION
M  V30 END CTAB
M  END
>  <Molecule Name>


>  <status>
DISCONTINUED

>  <cas>
394730-60-0

>  <name>
BOCEPREVIR

>  <ID>
1518

>  <Smiles>
CC(C)(C)[C@@H](C(N(C[C@@H]1C(C)(C)[C@H]11)[C@@H]1C(N[C@H](CC1CCC1)C(C(N)=O)=O)=O)=O)NC(NC(C)(C)C)=O

$$$$

Actelion Java MolfileCreator 2.0

  0  0  0  0  0  0              0 V3000
M  V30 BEGIN CTAB
M  V30 COUNTS 29 33 0 0 0
M  V30 BEGIN ATOM
M  V30 1 O 2.598 0.0 0.0 0
M  V30 2 C 1.732 -0.5 0.0 0
M  V30 3 O 0.866 0.0 0.0 0
M  V30 4 C 1.732 -1.5 0.0 0
M  V30 5 C 0.0 -0.5 0.0 0 CFG=1
M  V30 6 C 0.0 -1.5 0.0 0
M  V30 7 C -0.866 0.0 0.0 0
M  V30 8 C -0.866 -1.9999 0.0 0
M  V30 9 C -1.732 -0.4999 0.0 0
M  V30 10 C -0.866 -2.9999 0.0 0
M  V30 11 C -1.732 -1.4999 0.0 0 CFG=1
M  V30 12 C -1.732 -3.4999 0.0 0
M  V30 13 C -2.598 -1.9999 0.0 0 CFG=1
M  V30 14 C -2.598 -0.9999 0.0 0
M  V30 15 C -2.598 -2.9999 0.0 0 CFG=1
M  V30 16 C -3.4641 -1.4999 0.0 0
M  V30 17 C -3.4641 -3.4999 0.0 0 CFG=2
M  V30 18 C -4.3301 -1.9999 0.0 0
M  V30 19 C -4.3301 -2.9999 0.0 0 CFG=1
M  V30 20 C -3.672 -4.4781 0.0 0
M  V30 21 C -5.0732 -3.6691 0.0 0
M  V30 22 C -5.2436 -2.5932 0.0 0
M  V30 23 C -4.6665 -4.5826 0.0 0
M  V30 24 C -6.0514 -3.4612 0.0 0
M  V30 25 C -6.3604 -2.5101 0.0 0
M  V30 26 C -6.7205 -4.2043 0.0 0
M  V30 27 N -7.3385 -2.3022 0.0 0
M  V30 28 C -7.6986 -3.9964 0.0 0
M  V30 29 C -8.0077 -3.0453 0.0 0
M  V30 END ATOM
M  V30 BEGIN BOND
M  V30 1 2 1 2
M  V30 2 1 2 3
M  V30 3 1 2 4
M  V30 4 1 5 3 CFG=1
M  V30 5 1 5 6
M  V30 6 1 5 7
M  V30 7 1 6 8
M  V30 8 1 7 9
M  V30 9 2 8 10
M  V30 10 1 11 8
M  V30 11 1 10 12
M  V30 12 1 13 11
M  V30 13 1 11 14 CFG=1
M  V30 14 1 15 12 CFG=3
M  V30 15 1 13 16 CFG=1
M  V30 16 1 17 15
M  V30 17 1 16 18
M  V30 18 1 19 17
M  V30 19 1 17 20 CFG=1
M  V30 20 1 19 21
M  V30 21 1 19 22 CFG=1
M  V30 22 1 20 23
M  V30 23 1 21 24
M  V30 24 2 24 25
M  V30 25 1 24 26
M  V30 26 1 25 27
M  V30 27 2 26 28
M  V30 28 2 27 29
M  V30 29 1 9 11
M  V30 30 1 13 15
M  V30 31 1 18 19
M  V30 32 2 21 23
M  V30 33 1 28 29
M  V30 END BOND
M  V30 BEGIN COLLECTION
M  V30 MDLV30/STERAC1 ATOMS=(6 5 11 13 15 17 19)
M  V30 END COLLECTION
M  V30 END CTAB
M  END
>  <Molecule Name>


>  <status>
-

>  <cas>
154229-18-2

>  <name>
ABIRATERONE ACETATE

>  <ID>
1519

>  <Smiles>
C[C@]1(CC2)C(c3cnccc3)=CC[C@@H]1[C@@H]1[C@@H]2[C@](C)(CC[C@H](C2)OC(C)=O)C2=CC1

$$$$

Actelion Java MolfileCreator 2.0

  0  0  0  0  0  0              0 V3000
M  V30 BEGIN CTAB
M  V30 COUNTS 10 10 0 0 0
M  V30 BEGIN ATOM
M  V30 1 O 1.299 0.0 0.0 0
M  V30 2 C 0.0 -0.75 0.0 0
M  V30 3 C -1.299 0.0 0.0 0
M  V30 4 C 0.0 -2.25 0.0 0
M  V30 5 O -1.299 1.5 0.0 0
M  V30 6 C -2.598 -0.7499 0.0 0
M  V30 7 C -1.299 -2.9999 0.0 0
M  V30 8 N -2.598 -2.2499 0.0 0
M  V30 9 C -3.8971 0.0 0.0 0
M  V30 10 C -3.8971 -2.9999 0.0 0
M  V30 END ATOM
M  V30 BEGIN BOND
M  V30 1 2 1 2
M  V30 2 1 2 3
M  V30 3 1 2 4
M  V30 4 1 3 5
M  V30 5 2 3 6
M  V30 6 2 4 7
M  V30 7 1 6 8
M  V30 8 1 6 9
M  V30 9 1 8 10
M  V30 10 1 7 8
M  V30 END BOND
M  V30 END CTAB
M  END
>  <Molecule Name>


>  <status>
-

>  <cas>
30652-11-0

>  <name>
DEFERIPRONE

>  <ID>
1520

>  <Smiles>
CC(N(C)C=CC1=O)=C1O

$$$$

Actelion Java MolfileCreator 2.0

  0  0  0  0  0  0              0 V3000
M  V30 BEGIN CTAB
M  V30 COUNTS 92 98 0 0 0
M  V30 BEGIN ATOM
M  V30 1 S 7.0721 13.3237 0.0 0
M  V30 2 C 6.3221 12.0247 0.0 0
M  V30 3 C 8.5393 13.0118 0.0 0
M  V30 4 C 7.3258 10.91 0.0 0
M  V30 5 C 4.8303 11.8679 0.0 0
M  V30 6 C 8.6961 11.5201 0.0 0
M  V30 7 C 4.2202 10.4976 0.0 0 CFG=1
M  V30 8 N 5.1019 9.284 0.0 0
M  V30 9 C 2.7284 10.3408 0.0 0
M  V30 10 C 4.4918 7.9137 0.0 0
M  V30 11 O 2.1183 8.9705 0.0 0
M  V30 12 N 1.8467 11.5543 0.0 0
M  V30 13 O 3.0 7.7569 0.0 0
M  V30 14 C 5.3734 6.7002 0.0 0
M  V30 15 C 0.355 11.3975 0.0 0 CFG=1
M  V30 16 N 4.7633 5.3299 0.0 0
M  V30 17 C -0.5266 12.611 0.0 0
M  V30 18 C -0.2551 10.0272 0.0 0
M  V30 19 C 5.645 4.1164 0.0 0
M  V30 20 O -2.0184 12.4542 0.0 0
M  V30 21 N 0.0834 13.9813 0.0 0
M  V30 22 O 0.6265 8.8137 0.0 0
M  V30 23 O 7.1368 4.2731 0.0 0
M  V30 24 C 5.0349 2.746 0.0 0 CFG=2
M  V30 25 C -0.7982 15.1949 0.0 0 CFG=2
M  V30 26 C 1.5752 14.1381 0.0 0
M  V30 27 N 5.7849 1.447 0.0 0
M  V30 28 C 3.5677 2.4342 0.0 0
M  V30 29 C -2.29 15.0381 0.0 0
M  V30 30 C -0.1881 16.5652 0.0 0
M  V30 31 C 2.1853 15.5085 0.0 0
M  V30 32 C 7.2767 1.2902 0.0 0
M  V30 33 C 4.7812 0.3323 0.0 0
M  V30 34 C 3.4109 0.9424 0.0 0 CFG=1
M  V30 35 O -2.9001 13.6678 0.0 0
M  V30 36 N -3.1717 16.2516 0.0 0
M  V30 37 C 1.3036 16.722 0.0 0
M  V30 38 C 3.6771 15.6653 0.0 0
M  V30 39 O 8.1584 2.5037 0.0 0
M  V30 40 C 7.8868 -0.08 0.0 0 CFG=2
M  V30 41 O 2.1119 0.1924 0.0 0
M  V30 42 C -2.7081 17.6782 0.0 0 CFG=1
M  V30 43 C -4.6717 16.2516 0.0 0 CFG=1
M  V30 44 C 1.9137 18.0923 0.0 0
M  V30 45 C 4.2872 17.0356 0.0 0
M  V30 46 N 9.354 -0.3919 0.0 0
M  V30 47 C 7.1368 -1.3791 0.0 0
M  V30 48 C -3.9217 18.5599 0.0 0 CFG=1
M  V30 49 C -1.3378 18.2883 0.0 0
M  V30 50 C -5.5533 15.0381 0.0 0
M  V30 51 C -5.1352 17.6782 0.0 0
M  V30 52 C 3.4055 18.2491 0.0 0
M  V30 53 C 10.4687 0.6117 0.0 0
M  V30 54 C 9.5108 -1.8837 0.0 0
M  V30 55 C 8.1405 -2.4938 0.0 0
M  V30 56 C -3.7649 20.0517 0.0 0
M  V30 57 C -1.181 19.7801 0.0 0
M  V30 58 O -4.9432 13.6678 0.0 0
M  V30 59 N -7.0451 15.1949 0.0 0
M  V30 60 O 10.1569 2.0789 0.0 0
M  V30 61 C 11.8953 0.1482 0.0 0 CFG=2
M  V30 62 C -2.3945 20.6618 0.0 0
M  V30 63 C -7.9268 13.9813 0.0 0 CFG=1
M  V30 64 N 13.01 1.1519 0.0 0
M  V30 65 C 12.2072 -1.3189 0.0 0
M  V30 66 C -7.3167 12.611 0.0 0
M  V30 67 C -9.4186 14.1381 0.0 0
M  V30 68 C 12.6982 2.6191 0.0 0
M  V30 69 C 11.0925 -2.3226 0.0 0
M  V30 70 O -8.1984 11.3975 0.0 0
M  V30 71 O -5.8249 12.4542 0.0 0 CHG=-1
M  V30 72 C -10.3003 12.9246 0.0 0
M  V30 73 O 11.2716 3.0826 0.0 0
M  V30 74 C 13.8129 3.6228 0.0 0 CFG=1
M  V30 75 C 11.4043 -3.7899 0.0 0
M  V30 76 C -11.792 13.0814 0.0 0
M  V30 77 N 15.2395 3.1593 0.0 0
M  V30 78 C 13.501 5.09 0.0 0
M  V30 79 N 10.2896 -4.7935 0.0 0
M  V30 80 N -12.6737 11.8679 0.0 0
M  V30 81 C 14.6157 6.0937 0.0 0
M  V30 82 C 10.6015 -6.2608 0.0 0
M  V30 83 C -14.1655 12.0247 0.0 0
M  V30 84 C 14.3039 7.5609 0.0 0
M  V30 85 N 9.4868 -7.2645 0.0 0 CHG=1
M  V30 86 N 12.0281 -6.7243 0.0 0
M  V30 87 N -14.7756 13.395 0.0 0 CHG=1
M  V30 88 N -15.0472 10.8112 0.0 0
M  V30 89 N 15.4186 8.5646 0.0 0
M  V30 90 C 15.1067 10.0319 0.0 0
M  V30 91 N 13.6801 10.4954 0.0 0 CHG=1
M  V30 92 N 16.2214 11.0356 0.0 0
M  V30 END ATOM
M  V30 BEGIN BOND
M  V30 1 1 1 2
M  V30 2 1 1 3
M  V30 3 2 2 4
M  V30 4 1 2 5
M  V30 5 2 3 6
M  V30 6 1 7 5
M  V30 7 1 7 8 CFG=1
M  V30 8 1 7 9
M  V30 9 1 8 10
M  V30 10 2 9 11
M  V30 11 1 9 12
M  V30 12 2 10 13
M  V30 13 1 10 14
M  V30 14 1 15 12 CFG=3
M  V30 15 1 14 16
M  V30 16 1 15 17
M  V30 17 1 15 18
M  V30 18 1 16 19
M  V30 19 2 17 20
M  V30 20 1 17 21
M  V30 21 1 18 22
M  V30 22 2 19 23
M  V30 23 1 24 19 CFG=3
M  V30 24 1 25 21
M  V30 25 1 21 26
M  V30 26 1 24 27
M  V30 27 1 24 28
M  V30 28 1 25 29 CFG=3
M  V30 29 1 25 30
M  V30 30 1 26 31
M  V30 31 1 27 32
M  V30 32 1 27 33
M  V30 33 1 34 28
M  V30 34 2 29 35
M  V30 35 1 29 36
M  V30 36 1 30 37
M  V30 37 1 31 38
M  V30 38 2 32 39
M  V30 39 1 40 32 CFG=3
M  V30 40 1 34 41 CFG=1
M  V30 41 1 42 36 CFG=1
M  V30 42 1 43 36
M  V30 43 1 37 44
M  V30 44 2 38 45
M  V30 45 1 40 46
M  V30 46 1 40 47
M  V30 47 1 48 42
M  V30 48 1 42 49
M  V30 49 1 43 50 CFG=1
M  V30 50 1 43 51
M  V30 51 2 44 52
M  V30 52 1 46 53
M  V30 53 1 46 54
M  V30 54 1 47 55
M  V30 55 1 48 56 CFG=1
M  V30 56 1 49 57
M  V30 57 2 50 58
M  V30 58 1 50 59
M  V30 59 2 53 60
M  V30 60 1 61 53
M  V30 61 1 56 62
M  V30 62 1 63 59 CFG=1
M  V30 63 1 61 64 CFG=3
M  V30 64 1 61 65
M  V30 65 1 63 66
M  V30 66 1 63 67
M  V30 67 1 64 68
M  V30 68 1 65 69
M  V30 69 2 66 70
M  V30 70 1 66 71
M  V30 71 1 67 72
M  V30 72 2 68 73
M  V30 73 1 74 68
M  V30 74 1 69 75
M  V30 75 1 72 76
M  V30 76 1 74 77 CFG=3
M  V30 77 1 74 78
M  V30 78 1 75 79
M  V30 79 1 76 80
M  V30 80 1 78 81
M  V30 81 1 79 82
M  V30 82 1 80 83
M  V30 83 1 81 84
M  V30 84 2 82 85
M  V30 85 1 82 86
M  V30 86 2 83 87
M  V30 87 1 83 88
M  V30 88 1 84 89
M  V30 89 1 89 90
M  V30 90 2 90 91
M  V30 91 1 90 92
M  V30 92 1 4 6
M  V30 93 2 31 37
M  V30 94 1 33 34
M  V30 95 1 45 52
M  V30 96 1 48 51
M  V30 97 1 54 55
M  V30 98 1 57 62
M  V30 END BOND
M  V30 BEGIN COLLECTION
M  V30 MDLV30/STERAC1 ATOMS=(12 7 15 24 25 34 40 42 43 48 61 63 74)
M  V30 END COLLECTION
M  V30 END CTAB
M  END
>  <Molecule Name>


>  <status>
-

>  <cas>
130308-48-4

>  <name>
ICATIBANT

>  <ID>
1521

>  <Smiles>
N[C@@H](CCCNC(N)=[NH2+])C(N[C@H](CCCNC(N)=[NH2+])C(N(CCC1)[C@H]1C(N(C[C@H](C1)O)[C@H]1C(NCC(N[C@H](Cc1cccs1)C(N[C@H](CO)C(N(Cc1c(C2)cccc1)[C@@H]2C(N([C@H](C1)C(N[C@H](CCCNC(N)=[NH2+])C([O-])=O)=O)[C@H]2[C@@H]1CCCC2)=O)=O)=O)=O)=O)=O)=O)=O

$$$$

Actelion Java MolfileCreator 2.0

  0  0  0  0  0  0              0 V3000
M  V30 BEGIN CTAB
M  V30 COUNTS 29 32 0 0 0
M  V30 BEGIN ATOM
M  V30 1 O 3.4641 -4.4999 0.0 0
M  V30 2 C 3.4641 -3.4999 0.0 0
M  V30 3 N 4.3301 -3.0 0.0 0
M  V30 4 C 2.598 -2.9999 0.0 0
M  V30 5 C 4.3301 -2.0 0.0 0
M  V30 6 C 2.598 -1.9999 0.0 0
M  V30 7 C 5.1961 -1.5 0.0 0
M  V30 8 C 3.4641 -1.5 0.0 0
M  V30 9 O 6.0621 -2.0 0.0 0
M  V30 10 C 5.1961 -0.5 0.0 0
M  V30 11 C 3.4641 -0.5 0.0 0
M  V30 12 C 4.3301 0.0 0.0 0
M  V30 13 C 2.598 0.0 0.0 0 CFG=1
M  V30 14 O 2.598 1.0 0.0 0
M  V30 15 C 1.732 -0.5 0.0 0
M  V30 16 N 0.866 0.0 0.0 0
M  V30 17 C 0.0 -0.5 0.0 0
M  V30 18 C -0.9135 -0.0932 0.0 0
M  V30 19 C -0.1045 -1.4945 0.0 0
M  V30 20 C -1.5826 -0.8364 0.0 0
M  V30 21 C -1.0826 -1.7024 0.0 0
M  V30 22 C -2.5826 -0.8364 0.0 0
M  V30 23 C -1.5826 -2.5684 0.0 0
M  V30 24 C -3.0826 -1.7024 0.0 0
M  V30 25 C -2.5826 -2.5684 0.0 0
M  V30 26 C -4.0826 -1.7024 0.0 0
M  V30 27 C -3.0826 -3.4344 0.0 0
M  V30 28 C -4.5826 -2.5684 0.0 0
M  V30 29 C -2.5826 -4.3005 0.0 0
M  V30 END ATOM
M  V30 BEGIN BOND
M  V30 1 2 1 2
M  V30 2 1 2 3
M  V30 3 1 2 4
M  V30 4 1 3 5
M  V30 5 2 4 6
M  V30 6 2 5 7
M  V30 7 1 5 8
M  V30 8 1 7 9
M  V30 9 1 7 10
M  V30 10 2 8 11
M  V30 11 2 10 12
M  V30 12 1 13 11
M  V30 13 1 13 14 CFG=3
M  V30 14 1 13 15
M  V30 15 1 15 16
M  V30 16 1 16 17
M  V30 17 1 17 18
M  V30 18 1 17 19
M  V30 19 1 18 20
M  V30 20 1 19 21
M  V30 21 1 20 22
M  V30 22 1 21 23
M  V30 23 2 22 24
M  V30 24 2 23 25
M  V30 25 1 24 26
M  V30 26 1 25 27
M  V30 27 1 26 28
M  V30 28 1 27 29
M  V30 29 1 6 8
M  V30 30 1 11 12
M  V30 31 2 20 21
M  V30 32 1 24 25
M  V30 END BOND
M  V30 BEGIN COLLECTION
M  V30 MDLV30/STERAC1 ATOMS=(1 13)
M  V30 END COLLECTION
M  V30 END CTAB
M  END
>  <Molecule Name>


>  <status>
DISCONTINUED

>  <cas>
312753-06-3

>  <name>
INDACATEROL

>  <ID>
1522

>  <Smiles>
CCc1cc(CC(C2)NCC(c(cc3)c(C=CC(N4)=O)c4c3O)O)c2cc1CC

$$$$

Actelion Java MolfileCreator 2.0

  0  0  0  0  0  0              0 V3000
M  V30 BEGIN CTAB
M  V30 COUNTS 29 32 0 0 0
M  V30 BEGIN ATOM
M  V30 1 Cl 6.0412 -0.7318 0.0 0
M  V30 2 C 5.0467 -0.8364 0.0 0
M  V30 3 S 4.3776 -0.0932 0.0 0
M  V30 4 C 4.5467 -1.7024 0.0 0
M  V30 5 C 3.4641 -0.5 0.0 0
M  V30 6 C 3.5686 -1.4945 0.0 0
M  V30 7 C 2.598 0.0 0.0 0
M  V30 8 O 2.598 1.0 0.0 0
M  V30 9 N 1.732 -0.5 0.0 0
M  V30 10 C 0.866 0.0 0.0 0
M  V30 11 C 0.0 -0.5 0.0 0 CFG=2
M  V30 12 O -0.9135 -0.0932 0.0 0
M  V30 13 C -0.1045 -1.4945 0.0 0
M  V30 14 C -1.5826 -0.8364 0.0 0
M  V30 15 N -1.0826 -1.7024 0.0 0
M  V30 16 O -2.5771 -0.7318 0.0 0
M  V30 17 C -1.4894 -2.6159 0.0 0
M  V30 18 C -2.4839 -2.7205 0.0 0
M  V30 19 C -0.9016 -3.4249 0.0 0
M  V30 20 C -2.8906 -3.634 0.0 0
M  V30 21 C -1.3083 -4.3385 0.0 0
M  V30 22 C -2.3028 -4.443 0.0 0
M  V30 23 N -2.7096 -5.3566 0.0 0
M  V30 24 C -3.7041 -5.4611 0.0 0
M  V30 25 C -2.1218 -6.1656 0.0 0
M  V30 26 O -4.2919 -4.6521 0.0 0
M  V30 27 C -4.1108 -6.3746 0.0 0
M  V30 28 C -2.5285 -7.0791 0.0 0
M  V30 29 O -3.523 -7.1837 0.0 0
M  V30 END ATOM
M  V30 BEGIN BOND
M  V30 1 1 1 2
M  V30 2 1 2 3
M  V30 3 2 2 4
M  V30 4 1 3 5
M  V30 5 1 4 6
M  V30 6 1 5 7
M  V30 7 2 7 8
M  V30 8 1 7 9
M  V30 9 1 9 10
M  V30 10 1 11 10 CFG=1
M  V30 11 1 11 12
M  V30 12 1 11 13
M  V30 13 1 12 14
M  V30 14 1 13 15
M  V30 15 2 14 16
M  V30 16 1 15 17
M  V30 17 2 17 18
M  V30 18 1 17 19
M  V30 19 1 18 20
M  V30 20 2 19 21
M  V30 21 2 20 22
M  V30 22 1 22 23
M  V30 23 1 23 24
M  V30 24 1 23 25
M  V30 25 2 24 26
M  V30 26 1 24 27
M  V30 27 1 25 28
M  V30 28 1 27 29
M  V30 29 2 5 6
M  V30 30 1 14 15
M  V30 31 1 21 22
M  V30 32 1 28 29
M  V30 END BOND
M  V30 BEGIN COLLECTION
M  V30 MDLV30/STERAC1 ATOMS=(1 11)
M  V30 END COLLECTION
M  V30 END CTAB
M  END
>  <Molecule Name>


>  <status>
-

>  <cas>
366789-02-8

>  <name>
RIVAROXABAN

>  <ID>
1523

>  <Smiles>
O=C(c(s1)ccc1Cl)NCC(CN1c(cc2)ccc2N(CCOC2)C2=O)OC1=O

$$$$
_c001
Actelion Java MolfileCreator 2.0

  0  0  0  0  0  0              0 V3000
M  V30 BEGIN CTAB
M  V30 COUNTS 36 40 0 0 0
M  V30 BEGIN ATOM
M  V30 1 S 2.598 0.0 0.0 0
M  V30 2 C 3.4641 -0.5 0.0 0
M  V30 3 C 1.732 -0.5 0.0 0
M  V30 4 N 3.4641 -1.5 0.0 0
M  V30 5 N 4.3301 0.0 0.0 0
M  V30 6 C 0.866 0.0 0.0 0
M  V30 7 C 4.3301 -1.9999 0.0 0
M  V30 8 C 5.1961 -0.4999 0.0 0
M  V30 9 C 0.0 -0.5 0.0 0
M  V30 10 N 4.3301 -3.0 0.0 0
M  V30 11 C 5.1961 -1.4999 0.0 0
M  V30 12 N 6.1472 -0.1909 0.0 0
M  V30 13 C 5.1961 -3.4999 0.0 0 CFG=2
M  V30 14 N 6.1472 -1.809 0.0 0
M  V30 15 N 6.7349 -0.9999 0.0 0
M  V30 16 C 6.4562 0.76 0.0 0 CFG=2
M  V30 17 C 5.6961 -4.366 0.0 0 CFG=2
M  V30 18 C 6.1961 -3.5 0.0 0
M  V30 19 C 7.4072 1.069 0.0 0 CFG=1
M  V30 20 C 5.8684 1.569 0.0 0
M  V30 21 C 5.6961 -5.366 0.0 0
M  V30 22 O 8.2162 0.4813 0.0 0
M  V30 23 C 7.4072 2.069 0.0 0 CFG=2
M  V30 24 C 6.4562 2.3781 0.0 0 CFG=2
M  V30 25 C 4.8301 -5.866 0.0 0
M  V30 26 C 6.5621 -5.866 0.0 0
M  V30 27 O 8.2162 2.6568 0.0 0
M  V30 28 O 6.1472 3.3291 0.0 0
M  V30 29 C 4.8301 -6.866 0.0 0
M  V30 30 C 6.5621 -6.866 0.0 0
M  V30 31 C 5.169 3.537 0.0 0
M  V30 32 F 3.9641 -7.366 0.0 0
M  V30 33 C 5.6961 -7.366 0.0 0
M  V30 34 C 4.86 4.4881 0.0 0
M  V30 35 F 5.6961 -8.366 0.0 0
M  V30 36 O 3.8818 4.696 0.0 0
M  V30 END ATOM
M  V30 BEGIN BOND
M  V30 1 1 1 2
M  V30 2 1 1 3
M  V30 3 2 2 4
M  V30 4 1 2 5
M  V30 5 1 3 6
M  V30 6 1 4 7
M  V30 7 2 5 8
M  V30 8 1 6 9
M  V30 9 1 7 10
M  V30 10 2 7 11
M  V30 11 1 8 12
M  V30 12 1 13 10 CFG=1
M  V30 13 1 11 14
M  V30 14 1 12 15
M  V30 15 1 16 12 CFG=1
M  V30 16 1 17 13
M  V30 17 1 13 18
M  V30 18 1 19 16
M  V30 19 1 16 20
M  V30 20 1 17 21 CFG=3
M  V30 21 1 19 22 CFG=3
M  V30 22 1 23 19
M  V30 23 1 24 20
M  V30 24 2 21 25
M  V30 25 1 21 26
M  V30 26 1 23 27 CFG=3
M  V30 27 1 24 28 CFG=1
M  V30 28 1 25 29
M  V30 29 2 26 30
M  V30 30 1 28 31
M  V30 31 1 29 32
M  V30 32 2 29 33
M  V30 33 1 31 34
M  V30 34 1 33 35
M  V30 35 1 34 36
M  V30 36 1 8 11
M  V30 37 2 14 15
M  V30 38 1 17 18
M  V30 39 1 23 24
M  V30 40 1 30 33
M  V30 END BOND
M  V30 BEGIN COLLECTION
M  V30 MDLV30/STERAC1 ATOMS=(6 13 16 17 19 23 24)
M  V30 END COLLECTION
M  V30 END CTAB
M  END
>  <Molecule Name>
_c001

>  <status>
-

>  <cas>
274693-27-5

>  <name>
TICAGRELOR

>  <ID>
1524

>  <Smiles>
CCCSc1nc(N[C@@H](C2)[C@H]2c(cc2)cc(F)c2F)c2nnn([C@@H](C[C@H]([C@@H]3O)OCCO)[C@H]3O)c2n1

$$$$

Actelion Java MolfileCreator 2.0

  0  0  0  0  0  0              0 V3000
M  V30 BEGIN CTAB
M  V30 COUNTS 21 23 0 0 0
M  V30 BEGIN ATOM
M  V30 1 Cl 0.866 0.0 0.0 0
M  V30 2 C 0.0 -0.5 0.0 0
M  V30 3 C -0.866 0.0 0.0 0
M  V30 4 C 0.0 -1.4999 0.0 0
M  V30 5 C -1.732 -0.4999 0.0 0
M  V30 6 C -0.866 -1.9999 0.0 0
M  V30 7 N -2.5138 0.1234 0.0 0
M  V30 8 C -1.732 -1.4999 0.0 0
M  V30 9 C -3.4888 -0.099 0.0 0
M  V30 10 C -2.2913 1.0984 0.0 0
M  V30 11 N -2.5138 -2.1234 0.0 0
M  V30 12 O -4.1123 0.6828 0.0 0
M  V30 13 C -3.9226 -0.9999 0.0 0
M  V30 14 C -1.3357 1.3931 0.0 0
M  V30 15 C -3.0244 1.7785 0.0 0
M  V30 16 C -3.4888 -1.9009 0.0 0
M  V30 17 C -2.2913 -3.0984 0.0 0
M  V30 18 C -1.1132 2.3681 0.0 0
M  V30 19 C -2.8018 2.7535 0.0 0
M  V30 20 O -4.1123 -2.6828 0.0 0
M  V30 21 C -1.8463 3.0482 0.0 0
M  V30 END ATOM
M  V30 BEGIN BOND
M  V30 1 1 1 2
M  V30 2 2 2 3
M  V30 3 1 2 4
M  V30 4 1 3 5
M  V30 5 2 4 6
M  V30 6 1 5 7
M  V30 7 2 5 8
M  V30 8 1 7 9
M  V30 9 1 7 10
M  V30 10 1 8 11
M  V30 11 2 9 12
M  V30 12 1 9 13
M  V30 13 2 10 14
M  V30 14 1 10 15
M  V30 15 1 11 16
M  V30 16 1 11 17
M  V30 17 1 14 18
M  V30 18 2 15 19
M  V30 19 2 16 20
M  V30 20 2 18 21
M  V30 21 1 6 8
M  V30 22 1 13 16
M  V30 23 1 19 21
M  V30 END BOND
M  V30 END CTAB
M  END
>  <Molecule Name>


>  <status>
-

>  <cas>
22316-47-8

>  <name>
CLOBAZAM

>  <ID>
1525

>  <Smiles>
CN(c(ccc(Cl)c1)c1N(c1ccccc1)C(C1)=O)C1=O

$$$$

Actelion Java MolfileCreator 2.0

  0  0  0  0  0  0              0 V3000
M  V30 BEGIN CTAB
M  V30 COUNTS 23 26 0 0 0
M  V30 BEGIN ATOM
M  V30 1 N 3.4641 0.5 0.0 0
M  V30 2 C 2.598 0.0 0.0 0
M  V30 3 C 1.732 -0.5 0.0 0
M  V30 4 C 0.866 0.0 0.0 0 CFG=2
M  V30 5 N 0.866 1.0 0.0 0
M  V30 6 C 0.0 -0.5 0.0 0
M  V30 7 N 1.675 1.5877 0.0 0
M  V30 8 C 0.057 1.5877 0.0 0
M  V30 9 C -0.9135 -0.0932 0.0 0
M  V30 10 C -0.1045 -1.4945 0.0 0
M  V30 11 C 1.366 2.5388 0.0 0
M  V30 12 C 0.366 2.5388 0.0 0
M  V30 13 C -1.5826 -0.8364 0.0 0
M  V30 14 C -1.0826 -1.7024 0.0 0
M  V30 15 C -0.2217 3.3478 0.0 0
M  V30 16 N 0.1849 4.2614 0.0 0
M  V30 17 C -1.2162 3.2433 0.0 0
M  V30 18 C -0.4028 5.0704 0.0 0
M  V30 19 C -1.804 4.0523 0.0 0
M  V30 20 C -1.804 2.4343 0.0 0
M  V30 21 N -1.3973 4.9658 0.0 0
M  V30 22 N -2.7551 3.7433 0.0 0
M  V30 23 C -2.7551 2.7433 0.0 0
M  V30 END ATOM
M  V30 BEGIN BOND
M  V30 1 3 1 2
M  V30 2 1 2 3
M  V30 3 1 4 3
M  V30 4 1 4 5 CFG=1
M  V30 5 1 4 6
M  V30 6 1 5 7
M  V30 7 1 5 8
M  V30 8 1 6 9
M  V30 9 1 6 10
M  V30 10 2 7 11
M  V30 11 2 8 12
M  V30 12 1 9 13
M  V30 13 1 10 14
M  V30 14 1 12 15
M  V30 15 2 15 16
M  V30 16 1 15 17
M  V30 17 1 16 18
M  V30 18 2 17 19
M  V30 19 1 17 20
M  V30 20 2 18 21
M  V30 21 1 19 22
M  V30 22 2 20 23
M  V30 23 1 11 12
M  V30 24 1 13 14
M  V30 25 1 19 21
M  V30 26 1 22 23
M  V30 END BOND
M  V30 BEGIN COLLECTION
M  V30 MDLV30/STERAC1 ATOMS=(1 4)
M  V30 END COLLECTION
M  V30 END CTAB
M  END
>  <Molecule Name>


>  <status>
-

>  <cas>
941678-49-5

>  <name>
RUXOLITINIB

>  <ID>
1526

>  <Smiles>
N#CCC(C1CCCC1)n1ncc(-c2ncnc3c2cc[nH]3)c1

$$$$

Actelion Java MolfileCreator 2.0

  0  0  0  0  0  0              0 V3000
M  V30 BEGIN CTAB
M  V30 COUNTS 28 31 0 0 0
M  V30 BEGIN ATOM
M  V30 1 S 1.732 1.4999 0.0 0
M  V30 2 C 2.598 1.0 0.0 0
M  V30 3 C 0.866 1.0 0.0 0
M  V30 4 C 3.4641 1.5 0.0 0
M  V30 5 C 2.598 0.0 0.0 0
M  V30 6 C 0.0 1.5 0.0 0
M  V30 7 C 0.866 0.0 0.0 0
M  V30 8 C 3.4641 2.5 0.0 0
M  V30 9 C 4.3301 1.0 0.0 0
M  V30 10 C 3.4641 -0.4999 0.0 0
M  V30 11 C -0.866 1.0 0.0 0
M  V30 12 C 0.0 -0.4999 0.0 0
M  V30 13 O 2.598 3.0 0.0 0
M  V30 14 N 4.3301 3.0 0.0 0
M  V30 15 C 4.3301 0.0 0.0 0
M  V30 16 N -1.817 1.309 0.0 0
M  V30 17 C -0.866 0.0 0.0 0
M  V30 18 C 4.3301 4.0 0.0 0
M  V30 19 N -2.4048 0.5 0.0 0
M  V30 20 C -1.817 -0.309 0.0 0
M  V30 21 C -2.126 -1.26 0.0 0
M  V30 22 C -3.1042 -1.4679 0.0 0
M  V30 23 C -3.4132 -2.419 0.0 0
M  V30 24 N -4.3914 -2.6269 0.0 0
M  V30 25 C -2.7441 -3.1621 0.0 0
M  V30 26 C -4.7004 -3.578 0.0 0
M  V30 27 C -3.0531 -4.1132 0.0 0
M  V30 28 C -4.0312 -4.3211 0.0 0
M  V30 END ATOM
M  V30 BEGIN BOND
M  V30 1 1 1 2
M  V30 2 1 1 3
M  V30 3 2 2 4
M  V30 4 1 2 5
M  V30 5 2 3 6
M  V30 6 1 3 7
M  V30 7 1 4 8
M  V30 8 1 4 9
M  V30 9 2 5 10
M  V30 10 1 6 11
M  V30 11 2 7 12
M  V30 12 2 8 13
M  V30 13 1 8 14
M  V30 14 2 9 15
M  V30 15 1 11 16
M  V30 16 2 11 17
M  V30 17 1 14 18
M  V30 18 1 16 19
M  V30 19 1 17 20
M  V30 20 1 20 21
M  V30 21 2 21 22
M  V30 22 1 22 23
M  V30 23 2 23 24
M  V30 24 1 23 25
M  V30 25 1 24 26
M  V30 26 2 25 27
M  V30 27 2 26 28
M  V30 28 1 10 15
M  V30 29 1 12 17
M  V30 30 2 19 20
M  V30 31 1 27 28
M  V30 END BOND
M  V30 END CTAB
M  END
>  <Molecule Name>


>  <status>
-

>  <cas>
319460-85-0

>  <name>
AXITINIB

>  <ID>
1527

>  <Smiles>
CNC(c(cccc1)c1Sc(cc1)cc2c1c(/C=C/c1ncccc1)n[nH]2)=O

$$$$

Actelion Java MolfileCreator 2.0

  0  0  0  0  0  0              0 V3000
M  V30 BEGIN CTAB
M  V30 COUNTS 33 36 0 0 0
M  V30 BEGIN ATOM
M  V30 1 Cl 4.6951 12.9919 0.0 0
M  V30 2 C 5.6988 11.8772 0.0 0
M  V30 3 C 7.166 12.1891 0.0 0
M  V30 4 C 5.2352 10.4506 0.0 0
M  V30 5 C 8.1697 11.0744 0.0 0
M  V30 6 C 6.2389 9.3359 0.0 0
M  V30 7 C 7.7062 9.6478 0.0 0
M  V30 8 C 8.7098 8.533 0.0 0
M  V30 9 C 10.1771 8.8449 0.0 0
M  V30 10 C 8.2463 7.1065 0.0 0
M  V30 11 N 11.1808 7.7302 0.0 0
M  V30 12 C 9.25 5.9917 0.0 0
M  V30 13 C 10.7172 6.3036 0.0 0
M  V30 14 C 9.0932 4.5 0.0 0
M  V30 15 N 11.4672 5.0046 0.0 0
M  V30 16 C 7.7942 3.75 0.0 0
M  V30 17 C 10.4635 3.8898 0.0 0
M  V30 18 O 6.4951 4.5 0.0 0
M  V30 19 C 7.7942 2.25 0.0 0
M  V30 20 C 6.4951 1.5 0.0 0
M  V30 21 C 9.0932 1.5 0.0 0
M  V30 22 F 5.1961 2.25 0.0 0
M  V30 23 C 6.4951 0.0 0.0 0
M  V30 24 F 10.3923 2.25 0.0 0
M  V30 25 C 9.0932 0.0 0.0 0
M  V30 26 N 5.1961 -0.75 0.0 0
M  V30 27 C 7.7942 -0.75 0.0 0
M  V30 28 S 5.1961 -2.25 0.0 0
M  V30 29 O 6.6961 -2.2499 0.0 0
M  V30 30 O 5.9461 -3.549 0.0 0
M  V30 31 C 3.8971 -3.0 0.0 0
M  V30 32 C 3.8971 -4.5 0.0 0
M  V30 33 C 2.598 -5.25 0.0 0
M  V30 END ATOM
M  V30 BEGIN BOND
M  V30 1 1 1 2
M  V30 2 2 2 3
M  V30 3 1 2 4
M  V30 4 1 3 5
M  V30 5 2 4 6
M  V30 6 2 5 7
M  V30 7 1 7 8
M  V30 8 2 8 9
M  V30 9 1 8 10
M  V30 10 1 9 11
M  V30 11 2 10 12
M  V30 12 2 11 13
M  V30 13 1 12 14
M  V30 14 1 13 15
M  V30 15 1 14 16
M  V30 16 2 14 17
M  V30 17 2 16 18
M  V30 18 1 16 19
M  V30 19 2 19 20
M  V30 20 1 19 21
M  V30 21 1 20 22
M  V30 22 1 20 23
M  V30 23 1 21 24
M  V30 24 2 21 25
M  V30 25 1 23 26
M  V30 26 2 23 27
M  V30 27 1 26 28
M  V30 28 2 28 29
M  V30 29 2 28 30
M  V30 30 1 28 31
M  V30 31 1 31 32
M  V30 32 1 32 33
M  V30 33 1 6 7
M  V30 34 1 12 13
M  V30 35 1 15 17
M  V30 36 1 25 27
M  V30 END BOND
M  V30 END CTAB
M  END
>  <Molecule Name>


>  <status>
-

>  <cas>
918504-65-1

>  <name>
VEMURAFENIB

>  <ID>
1528

>  <Smiles>
CCCS(Nc(c(F)c1C(c(c2c3)c[nH]c2ncc3-c(cc2)ccc2Cl)=O)ccc1F)(=O)=O

$$$$

Actelion Java MolfileCreator 2.0

  0  0  0  0  0  0              0 V3000
M  V30 BEGIN CTAB
M  V30 COUNTS 32 33 0 0 0
M  V30 BEGIN ATOM
M  V30 1 F 10.2259 -4.6016 0.0 0
M  V30 2 C 11.2296 -5.7164 0.0 0
M  V30 3 F 9.7624 -6.0282 0.0 0
M  V30 4 C 12.3443 -4.7127 0.0 0
M  V30 5 C 11.5414 -7.1836 0.0 0
M  V30 6 C 12.0324 -3.2454 0.0 0
M  V30 7 O 10.4267 -8.1873 0.0 0
M  V30 8 C 13.1471 -2.2417 0.0 0 CFG=2
M  V30 9 C 10.7386 -9.6545 0.0 0
M  V30 10 C 14.6144 -2.5536 0.0 0 CFG=1
M  V30 11 C 12.9903 -0.75 0.0 0 CFG=1
M  V30 12 C 9.6239 -10.6582 0.0 0
M  V30 13 C 12.1652 -10.118 0.0 0
M  V30 14 O 15.2245 -3.9239 0.0 0
M  V30 15 C 15.3644 -1.2546 0.0 0
M  V30 16 C 14.3607 -0.1398 0.0 0 CFG=1
M  V30 17 C 11.6913 0.0 0.0 0
M  V30 18 C 9.9357 -12.1254 0.0 0
M  V30 19 C 12.477 -11.5852 0.0 0
M  V30 20 O 14.6725 1.3273 0.0 0
M  V30 21 C 10.3923 -0.75 0.0 0
M  V30 22 C 11.3623 -12.5889 0.0 0
M  V30 23 C 9.0932 0.0 0.0 0
M  V30 24 C 9.0932 1.5 0.0 0
M  V30 25 C 7.7942 2.25 0.0 0
M  V30 26 C 7.7942 3.75 0.0 0
M  V30 27 C 6.4951 4.5 0.0 0
M  V30 28 O 5.1961 3.75 0.0 0
M  V30 29 O 6.4951 6.0 0.0 0
M  V30 30 C 5.1961 6.75 0.0 0
M  V30 31 C 3.8971 6.0 0.0 0
M  V30 32 C 5.1961 8.25 0.0 0
M  V30 END ATOM
M  V30 BEGIN BOND
M  V30 1 1 1 2
M  V30 2 1 2 3
M  V30 3 1 2 4
M  V30 4 1 2 5
M  V30 5 2 4 6
M  V30 6 1 5 7
M  V30 7 1 8 6 CFG=1
M  V30 8 1 7 9
M  V30 9 1 10 8
M  V30 10 1 11 8
M  V30 11 2 9 12
M  V30 12 1 9 13
M  V30 13 1 10 14 CFG=3
M  V30 14 1 10 15
M  V30 15 1 16 11
M  V30 16 1 11 17 CFG=3
M  V30 17 1 12 18
M  V30 18 2 13 19
M  V30 19 1 16 20 CFG=3
M  V30 20 1 17 21
M  V30 21 2 18 22
M  V30 22 2 21 23
M  V30 23 1 23 24
M  V30 24 1 24 25
M  V30 25 1 25 26
M  V30 26 1 26 27
M  V30 27 2 27 28
M  V30 28 1 27 29
M  V30 29 1 29 30
M  V30 30 1 30 31
M  V30 31 1 30 32
M  V30 32 1 15 16
M  V30 33 1 19 22
M  V30 END BOND
M  V30 BEGIN COLLECTION
M  V30 MDLV30/STERAC1 ATOMS=(4 8 10 11 16)
M  V30 END COLLECTION
M  V30 END CTAB
M  END
>  <Molecule Name>


>  <status>
-

>  <cas>
209860-87-7

>  <name>
TAFLUPROST

>  <ID>
1529

>  <Smiles>
CC(C)OC(CCC/C=C\C[C@H]([C@@H](C[C@@H]1O)O)[C@@H]1/C=C/C(COc1ccccc1)(F)F)=O

$$$$

Actelion Java MolfileCreator 2.0

  0  0  0  0  0  0              0 V3000
M  V30 BEGIN CTAB
M  V30 COUNTS 30 33 0 0 0
M  V30 BEGIN ATOM
M  V30 1 Cl 3.4641 -1.4999 0.0 0
M  V30 2 C 3.4641 -0.4999 0.0 0
M  V30 3 C 4.3301 0.0 0.0 0
M  V30 4 C 2.598 0.0 0.0 0
M  V30 5 F 5.1961 -0.5 0.0 0
M  V30 6 C 4.3301 1.0 0.0 0
M  V30 7 C 2.598 1.0 0.0 0
M  V30 8 C 1.732 -0.5 0.0 0 CFG=1
M  V30 9 C 3.4641 1.5 0.0 0
M  V30 10 Cl 1.732 1.4999 0.0 0
M  V30 11 O 0.866 0.0 0.0 0
M  V30 12 C 1.732 -1.5 0.0 0
M  V30 13 C 0.0 -0.5 0.0 0
M  V30 14 C -0.866 0.0 0.0 0
M  V30 15 C 0.0 -1.4999 0.0 0
M  V30 16 N -1.732 -0.4999 0.0 0
M  V30 17 N -0.866 1.0 0.0 0
M  V30 18 C -0.866 -1.9999 0.0 0
M  V30 19 C -1.732 -1.4999 0.0 0
M  V30 20 C -0.866 -2.9999 0.0 0
M  V30 21 C -1.675 -3.5877 0.0 0
M  V30 22 C -0.057 -3.5877 0.0 0
M  V30 23 N -1.366 -4.5388 0.0 0
M  V30 24 N -0.366 -4.5388 0.0 0
M  V30 25 C 0.2217 -5.3478 0.0 0
M  V30 26 C -0.1849 -6.2614 0.0 0
M  V30 27 C 1.2162 -5.2433 0.0 0
M  V30 28 C 0.4028 -7.0704 0.0 0
M  V30 29 C 1.804 -6.0523 0.0 0
M  V30 30 N 1.3973 -6.9658 0.0 0
M  V30 END ATOM
M  V30 BEGIN BOND
M  V30 1 1 1 2
M  V30 2 2 2 3
M  V30 3 1 2 4
M  V30 4 1 3 5
M  V30 5 1 3 6
M  V30 6 2 4 7
M  V30 7 1 8 4
M  V30 8 2 6 9
M  V30 9 1 7 10
M  V30 10 1 8 11 CFG=3
M  V30 11 1 8 12
M  V30 12 1 11 13
M  V30 13 2 13 14
M  V30 14 1 13 15
M  V30 15 1 14 16
M  V30 16 1 14 17
M  V30 17 2 15 18
M  V30 18 2 16 19
M  V30 19 1 18 20
M  V30 20 1 20 21
M  V30 21 2 20 22
M  V30 22 2 21 23
M  V30 23 1 22 24
M  V30 24 1 24 25
M  V30 25 1 25 26
M  V30 26 1 25 27
M  V30 27 1 26 28
M  V30 28 1 27 29
M  V30 29 1 28 30
M  V30 30 1 7 9
M  V30 31 1 18 19
M  V30 32 1 23 24
M  V30 33 1 29 30
M  V30 END BOND
M  V30 BEGIN COLLECTION
M  V30 MDLV30/STERAC1 ATOMS=(1 8)
M  V30 END COLLECTION
M  V30 END CTAB
M  END
>  <Molecule Name>


>  <status>
-

>  <cas>
877399-52-5

>  <name>
CRIZOTINIB

>  <ID>
1530

>  <Smiles>
CC(c(c(Cl)c(cc1)F)c1Cl)Oc1c(N)ncc(-c2cn(C3CCNCC3)nc2)c1

$$$$

Actelion Java MolfileCreator 2.0

  0  0  0  0  0  0              0 V3000
M  V30 BEGIN CTAB
M  V30 COUNTS 31 34 0 0 0
M  V30 BEGIN ATOM
M  V30 1 O 6.2734 -1.1632 0.0 0
M  V30 2 C 6.6292 -0.2286 0.0 0
M  V30 3 C 5.9128 0.3364 0.0 0 CFG=2
M  V30 4 C 7.6274 -0.2884 0.0 0 CFG=1
M  V30 5 C 5.4128 1.2024 0.0 0
M  V30 6 C 5.2436 -0.4067 0.0 0 CFG=1
M  V30 7 C 6.334 1.5489 0.0 0 CFG=2
M  V30 8 C 7.2062 -1.5009 0.0 0
M  V30 9 C 8.2966 0.4546 0.0 0 CFG=1
M  V30 10 C 4.4346 0.9945 0.0 0
M  V30 11 O 4.4526 -1.0184 0.0 0
M  V30 12 C 5.4074 -1.3932 0.0 0 CFG=2
M  V30 13 C 4.3301 0.0 0.0 0 CFG=1
M  V30 14 C 7.2593 1.9281 0.0 0
M  V30 15 C 5.6079 2.2364 0.0 0
M  V30 16 C 6.2808 -1.8802 0.0 0
M  V30 17 C 9.069 1.0897 0.0 0
M  V30 18 C 8.1328 1.4411 0.0 0 CFG=2
M  V30 19 C 3.6915 1.6636 0.0 0
M  V30 20 O 4.5897 -1.9688 0.0 0
M  V30 21 O 3.4641 -0.5 0.0 0
M  V30 22 C 6.221 -2.8784 0.0 0
M  V30 23 C 10.0052 0.7384 0.0 0
M  V30 24 C 9.8414 1.7248 0.0 0
M  V30 25 C 2.598 0.0 0.0 0
M  V30 26 O 7.0556 -3.4293 0.0 0
M  V30 27 O 2.598 1.0 0.0 0
M  V30 28 C 1.732 -0.5 0.0 0
M  V30 29 C 0.866 0.0 0.0 0
M  V30 30 C 1.732 -1.5 0.0 0
M  V30 31 C 0.866 0.9999 0.0 0
M  V30 END ATOM
M  V30 BEGIN BOND
M  V30 1 2 1 2
M  V30 2 1 3 2
M  V30 3 1 4 2
M  V30 4 1 3 5 CFG=1
M  V30 5 1 6 3
M  V30 6 1 7 3
M  V30 7 1 4 8 CFG=3
M  V30 8 1 9 4
M  V30 9 2 5 10
M  V30 10 1 6 11 CFG=3
M  V30 11 1 12 6
M  V30 12 1 13 6
M  V30 13 1 7 14
M  V30 14 1 7 15 CFG=1
M  V30 15 2 8 16
M  V30 16 1 9 17 CFG=3
M  V30 17 1 18 9
M  V30 18 1 10 19
M  V30 19 1 12 20 CFG=3
M  V30 20 1 13 21 CFG=3
M  V30 21 1 16 22
M  V30 22 1 17 23
M  V30 23 1 17 24
M  V30 24 1 21 25
M  V30 25 1 22 26
M  V30 26 2 25 27
M  V30 27 1 25 28
M  V30 28 2 28 29
M  V30 29 1 28 30
M  V30 30 1 29 31
M  V30 31 1 10 13
M  V30 32 1 12 16
M  V30 33 1 18 14 CFG=3
M  V30 34 1 17 18
M  V30 END BOND
M  V30 BEGIN COLLECTION
M  V30 MDLV30/STERAC1 ATOMS=(8 3 4 6 7 9 12 13 18)
M  V30 END COLLECTION
M  V30 END CTAB
M  END
>  <Molecule Name>


>  <status>
-

>  <cas>
75567-37-2

>  <name>
INGENOL MEBUTATE

>  <ID>
1531

>  <Smiles>
C[C@@H](C[C@@H]1C(C)(C)[C@@H]1[C@@H]1C=C(CO)[C@@H]([C@]2([C@@H](C(C)=C3)OC(/C(/C)=C\C)=O)O)O)[C@@]23C1=O

$$$$

Actelion Java MolfileCreator 2.0

  0  0  0  0  0  0              0 V3000
M  V30 BEGIN CTAB
M  V30 COUNTS 29 31 0 0 0
M  V30 BEGIN ATOM
M  V30 1 O 1.732 1.4999 0.0 0
M  V30 2 C 2.598 1.0 0.0 0
M  V30 3 C 2.598 0.0 0.0 0
M  V30 4 C 3.4641 1.4999 0.0 0
M  V30 5 C 1.732 -0.5 0.0 0
M  V30 6 C 3.4641 -0.5 0.0 0
M  V30 7 C 4.3301 1.0 0.0 0
M  V30 8 C 3.4641 2.4999 0.0 0
M  V30 9 O 1.732 -1.5 0.0 0
M  V30 10 N 0.866 0.0 0.0 0
M  V30 11 N 4.3301 0.0 0.0 0
M  V30 12 C 5.1961 1.5 0.0 0
M  V30 13 C 4.3301 3.0 0.0 0
M  V30 14 C 0.0 -0.5 0.0 0
M  V30 15 C 5.1961 2.5 0.0 0
M  V30 16 C -0.866 0.0 0.0 0
M  V30 17 C 0.0 -1.4999 0.0 0
M  V30 18 C -1.732 -0.4999 0.0 0
M  V30 19 C -0.866 1.0 0.0 0
M  V30 20 C -0.866 -1.9999 0.0 0
M  V30 21 C -1.732 -1.4999 0.0 0
M  V30 22 C -1.866 1.0 0.0 0
M  V30 23 C -0.866 2.0 0.0 0
M  V30 24 C 0.1339 0.9999 0.0 0
M  V30 25 O -0.866 -2.9999 0.0 0
M  V30 26 C -2.598 -1.9999 0.0 0
M  V30 27 C -2.098 -2.866 0.0 0
M  V30 28 C -3.4641 -2.4999 0.0 0
M  V30 29 C -3.098 -1.1339 0.0 0
M  V30 END ATOM
M  V30 BEGIN BOND
M  V30 1 2 1 2
M  V30 2 1 2 3
M  V30 3 1 2 4
M  V30 4 1 3 5
M  V30 5 2 3 6
M  V30 6 2 4 7
M  V30 7 1 4 8
M  V30 8 2 5 9
M  V30 9 1 5 10
M  V30 10 1 6 11
M  V30 11 1 7 12
M  V30 12 2 8 13
M  V30 13 1 10 14
M  V30 14 2 12 15
M  V30 15 2 14 16
M  V30 16 1 14 17
M  V30 17 1 16 18
M  V30 18 1 16 19
M  V30 19 2 17 20
M  V30 20 2 18 21
M  V30 21 1 19 22
M  V30 22 1 19 23
M  V30 23 1 19 24
M  V30 24 1 20 25
M  V30 25 1 21 26
M  V30 26 1 26 27
M  V30 27 1 26 28
M  V30 28 1 26 29
M  V30 29 1 7 11
M  V30 30 1 13 15
M  V30 31 1 20 21
M  V30 END BOND
M  V30 END CTAB
M  END
>  <Molecule Name>


>  <status>
-

>  <cas>
873054-44-5

>  <name>
IVACAFTOR

>  <ID>
1532

>  <Smiles>
CC(C)(C)c(cc(C(C)(C)C)c(O)c1)c1NC(C1=CNc(cccc2)c2C1=O)=O

$$$$

Actelion Java MolfileCreator 2.0

  0  0  0  0  0  0              0 V3000
M  V30 BEGIN CTAB
M  V30 COUNTS 27 29 0 0 0
M  V30 BEGIN ATOM
M  V30 1 Cl 1.732 1.4999 0.0 0
M  V30 2 C 2.598 1.0 0.0 0
M  V30 3 C 2.598 0.0 0.0 0
M  V30 4 C 3.4641 1.4999 0.0 0
M  V30 5 C 1.732 -0.5 0.0 0
M  V30 6 C 3.4641 -0.5 0.0 0
M  V30 7 C 4.3301 1.0 0.0 0
M  V30 8 O 1.732 -1.5 0.0 0
M  V30 9 N 0.866 0.0 0.0 0
M  V30 10 C 4.3301 0.0 0.0 0
M  V30 11 S 5.1961 1.5 0.0 0
M  V30 12 C 0.0 -0.5 0.0 0
M  V30 13 O 5.6961 0.6339 0.0 0
M  V30 14 O 4.6961 2.366 0.0 0
M  V30 15 C 6.0621 2.0 0.0 0
M  V30 16 C -0.866 0.0 0.0 0
M  V30 17 C 0.0 -1.4999 0.0 0
M  V30 18 C -1.732 -0.4999 0.0 0
M  V30 19 C -0.866 -1.9999 0.0 0
M  V30 20 C -1.732 -1.4999 0.0 0
M  V30 21 C -2.598 0.0 0.0 0
M  V30 22 Cl -2.598 -1.9999 0.0 0
M  V30 23 N -2.598 1.0 0.0 0
M  V30 24 C -3.4641 -0.4999 0.0 0
M  V30 25 C -3.4641 1.5 0.0 0
M  V30 26 C -4.3301 0.0 0.0 0
M  V30 27 C -4.3301 1.0 0.0 0
M  V30 END ATOM
M  V30 BEGIN BOND
M  V30 1 1 1 2
M  V30 2 2 2 3
M  V30 3 1 2 4
M  V30 4 1 3 5
M  V30 5 1 3 6
M  V30 6 2 4 7
M  V30 7 2 5 8
M  V30 8 1 5 9
M  V30 9 2 6 10
M  V30 10 1 7 11
M  V30 11 1 9 12
M  V30 12 2 11 13
M  V30 13 2 11 14
M  V30 14 1 11 15
M  V30 15 2 12 16
M  V30 16 1 12 17
M  V30 17 1 16 18
M  V30 18 2 17 19
M  V30 19 2 18 20
M  V30 20 1 18 21
M  V30 21 1 20 22
M  V30 22 2 21 23
M  V30 23 1 21 24
M  V30 24 1 23 25
M  V30 25 2 24 26
M  V30 26 2 25 27
M  V30 27 1 7 10
M  V30 28 1 19 20
M  V30 29 1 26 27
M  V30 END BOND
M  V30 END CTAB
M  END
>  <Molecule Name>


>  <status>
-

>  <cas>
879085-55-9

>  <name>
VISMODEGIB

>  <ID>
1533

>  <Smiles>
CS(c(cc1)cc(Cl)c1C(Nc(cc1)cc(-c2ncccc2)c1Cl)=O)(=O)=O

$$$$
_c001
Actelion Java MolfileCreator 2.0

  0  0  0  0  0  0              0 V3000
M  V30 BEGIN CTAB
M  V30 COUNTS 29 30 0 0 0
M  V30 BEGIN ATOM
M  V30 1 F 7.6278 -4.6016 0.0 0
M  V30 2 C 8.6315 -5.7164 0.0 0
M  V30 3 F 7.1643 -6.0282 0.0 0
M  V30 4 C 9.7462 -4.7127 0.0 0
M  V30 5 C 8.9434 -7.1836 0.0 0
M  V30 6 C 9.4343 -3.2454 0.0 0
M  V30 7 O 7.8286 -8.1873 0.0 0
M  V30 8 C 10.5491 -2.2417 0.0 0 CFG=2
M  V30 9 C 8.1405 -9.6545 0.0 0
M  V30 10 C 12.0163 -2.5536 0.0 0 CFG=1
M  V30 11 C 10.3923 -0.75 0.0 0 CFG=1
M  V30 12 C 7.0258 -10.6582 0.0 0
M  V30 13 C 9.5671 -10.118 0.0 0
M  V30 14 O 12.6264 -3.9239 0.0 0
M  V30 15 C 12.7663 -1.2546 0.0 0
M  V30 16 C 11.7626 -0.1398 0.0 0 CFG=1
M  V30 17 C 9.0932 0.0 0.0 0
M  V30 18 C 7.3377 -12.1254 0.0 0
M  V30 19 C 9.879 -11.5852 0.0 0
M  V30 20 O 12.0745 1.3273 0.0 0
M  V30 21 C 7.7942 -0.75 0.0 0
M  V30 22 C 8.7642 -12.5889 0.0 0
M  V30 23 C 6.4952 0.0 0.0 0
M  V30 24 C 6.4952 1.5 0.0 0
M  V30 25 C 5.1961 2.25 0.0 0
M  V30 26 C 5.1961 3.75 0.0 0
M  V30 27 C 3.8971 4.5 0.0 0
M  V30 28 O 2.598 3.75 0.0 0
M  V30 29 O 3.8971 6.0 0.0 0 CHG=-1
M  V30 END ATOM
M  V30 BEGIN BOND
M  V30 1 1 1 2
M  V30 2 1 2 3
M  V30 3 1 2 4
M  V30 4 1 2 5
M  V30 5 2 4 6
M  V30 6 1 5 7
M  V30 7 1 8 6 CFG=1
M  V30 8 1 7 9
M  V30 9 1 10 8
M  V30 10 1 11 8
M  V30 11 2 9 12
M  V30 12 1 9 13
M  V30 13 1 10 14 CFG=3
M  V30 14 1 10 15
M  V30 15 1 16 11
M  V30 16 1 11 17 CFG=3
M  V30 17 1 12 18
M  V30 18 2 13 19
M  V30 19 1 16 20 CFG=3
M  V30 20 1 17 21
M  V30 21 2 18 22
M  V30 22 2 21 23
M  V30 23 1 23 24
M  V30 24 1 24 25
M  V30 25 1 25 26
M  V30 26 1 26 27
M  V30 27 2 27 28
M  V30 28 1 27 29
M  V30 29 1 15 16
M  V30 30 1 19 22
M  V30 END BOND
M  V30 BEGIN COLLECTION
M  V30 MDLV30/STERAC1 ATOMS=(4 8 10 11 16)
M  V30 END COLLECTION
M  V30 END CTAB
M  END
>  <Molecule Name>
_c001

>  <status>
-

>  <cas>
209860-88-8

>  <name>
M TAFLUPROST

>  <ID>
1534

>  <Smiles>
[O-]C(CCC/C=C\C[C@H]([C@@H](C[C@@H]1O)O)[C@@H]1/C=C/C(COc1ccccc1)(F)F)=O

$$$$
_c001
Actelion Java MolfileCreator 2.0

  0  0  0  0  0  0              0 V3000
M  V30 BEGIN CTAB
M  V30 COUNTS 67 70 0 0 0
M  V30 BEGIN ATOM
M  V30 1 Cl 7.8787 -0.7581 0.0 0
M  V30 2 C 6.5656 0.0 0.0 0
M  V30 3 C 6.5656 1.5162 0.0 0
M  V30 4 C 5.2525 -0.7581 0.0 0
M  V30 5 O 7.8787 2.2744 0.0 0
M  V30 6 C 5.2525 2.2744 0.0 0
M  V30 7 O 5.2525 -2.2744 0.0 0
M  V30 8 C 3.9393 0.0 0.0 0
M  V30 9 Cl 5.2525 3.7906 0.0 0
M  V30 10 C 3.9393 1.5162 0.0 0
M  V30 11 C 2.6262 -0.7581 0.0 0
M  V30 12 C 2.6262 2.2744 0.0 0
M  V30 13 O 2.6262 -2.2744 0.0 0
M  V30 14 O 1.3131 0.0 0.0 0
M  V30 15 C 1.3131 1.5162 0.0 0
M  V30 16 C 0.0 -0.7581 0.0 0 CFG=2
M  V30 17 C -1.3131 0.0 0.0 0 CFG=1
M  V30 18 C 0.0 -2.2744 0.0 0 CFG=1
M  V30 19 O -1.3131 1.5162 0.0 0
M  V30 20 C -2.6262 -0.7581 0.0 0 CFG=1
M  V30 21 O -1.3131 -3.0325 0.0 0
M  V30 22 C 1.3131 -3.0325 0.0 0
M  V30 23 O -3.9393 0.0 0.0 0
M  V30 24 C -2.6262 -2.2744 0.0 0 CFG=2
M  V30 25 C -5.2525 -0.7581 0.0 0
M  V30 26 O -3.9393 -3.0325 0.0 0
M  V30 27 C -5.2525 -2.2744 0.0 0
M  V30 28 C -6.5656 -3.0325 0.0 0
M  V30 29 C -6.5656 -4.5488 0.0 0
M  V30 30 C -7.8453 -2.05 0.0 0
M  V30 31 O -5.2525 -5.3069 0.0 0
M  V30 32 O -7.8787 -5.3069 0.0 0
M  V30 33 C -7.8787 -0.7581 0.0 0
M  V30 34 C -9.1918 -4.5488 0.0 0 CFG=1
M  V30 35 C -9.1918 0.0 0.0 0
M  V30 36 C -9.1918 -3.0325 0.0 0 CFG=1
M  V30 37 C -10.505 -5.3069 0.0 0
M  V30 38 C -9.1918 1.5162 0.0 0
M  V30 39 O -7.9235 -2.5756 0.0 0
M  V30 40 C -10.15 -2.4075 0.0 0
M  V30 41 C -11.8181 -4.5488 0.0 0
M  V30 42 C -10.505 2.2744 0.0 0 CFG=1
M  V30 43 C -11.8181 -3.0325 0.0 0
M  V30 44 O -10.505 3.7906 0.0 0
M  V30 45 C -11.8181 1.5162 0.0 0
M  V30 46 C -13.1312 -2.2744 0.0 0
M  V30 47 C -10.6824 -2.2078 0.0 0
M  V30 48 C -13.1312 2.2744 0.0 0
M  V30 49 C -11.9589 0.3519 0.0 0
M  V30 50 C -13.1312 -0.7581 0.0 0
M  V30 51 C -14.4443 1.5162 0.0 0 CFG=2
M  V30 52 C -14.4443 0.0 0.0 0 CFG=2
M  V30 53 C -11.7477 -0.1759 0.0 0
M  V30 54 C -15.7575 2.2744 0.0 0
M  V30 55 O -15.7575 -0.7581 0.0 0
M  V30 56 C -15.7575 3.7906 0.0 0
M  V30 57 C -17.0706 0.0 0.0 0 CFG=1
M  V30 58 O -17.0706 1.5162 0.0 0
M  V30 59 C -18.3837 -0.7581 0.0 0 CFG=2
M  V30 60 C -18.3837 2.2744 0.0 0
M  V30 61 O -18.3837 -2.2744 0.0 0
M  V30 62 C -19.6969 0.0 0.0 0 CFG=1
M  V30 63 C -19.6969 1.5162 0.0 0 CFG=1
M  V30 64 C -17.6256 3.5874 0.0 0
M  V30 65 C -19.1419 3.5874 0.0 0
M  V30 66 O -21.01 -0.7581 0.0 0
M  V30 67 O -21.01 2.2744 0.0 0
M  V30 END ATOM
M  V30 BEGIN BOND
M  V30 1 1 1 2
M  V30 2 2 2 3
M  V30 3 1 2 4
M  V30 4 1 3 5
M  V30 5 1 3 6
M  V30 6 1 4 7
M  V30 7 2 4 8
M  V30 8 1 6 9
M  V30 9 2 6 10
M  V30 10 1 8 11
M  V30 11 1 10 12
M  V30 12 2 11 13
M  V30 13 1 11 14
M  V30 14 1 12 15
M  V30 15 1 16 14 CFG=1
M  V30 16 1 17 16
M  V30 17 1 18 16
M  V30 18 1 17 19 CFG=3
M  V30 19 1 20 17
M  V30 20 1 18 21
M  V30 21 1 18 22 CFG=3
M  V30 22 1 20 23 CFG=3
M  V30 23 1 24 20
M  V30 24 1 23 25
M  V30 25 1 24 26 CFG=3
M  V30 26 1 26 27
M  V30 27 1 27 28
M  V30 28 1 28 29
M  V30 29 2 28 30
M  V30 30 2 29 31
M  V30 31 1 29 32
M  V30 32 1 30 33
M  V30 33 1 34 32 CFG=3
M  V30 34 2 33 35
M  V30 35 1 36 34
M  V30 36 1 34 37
M  V30 37 1 35 38
M  V30 38 1 36 39 CFG=3
M  V30 39 1 36 40
M  V30 40 1 37 41
M  V30 41 1 42 38
M  V30 42 2 41 43
M  V30 43 1 42 44 CFG=3
M  V30 44 1 42 45
M  V30 45 1 43 46
M  V30 46 1 43 47
M  V30 47 2 45 48
M  V30 48 1 45 49
M  V30 49 2 46 50
M  V30 50 1 51 48
M  V30 51 1 52 50
M  V30 52 1 50 53
M  V30 53 1 51 54 CFG=3
M  V30 54 1 52 55 CFG=1
M  V30 55 1 54 56
M  V30 56 1 57 55 CFG=3
M  V30 57 1 57 58
M  V30 58 1 59 57
M  V30 59 1 58 60
M  V30 60 1 59 61 CFG=3
M  V30 61 1 62 59
M  V30 62 1 63 60
M  V30 63 1 60 64
M  V30 64 1 60 65
M  V30 65 1 62 66 CFG=3
M  V30 66 1 63 67 CFG=1
M  V30 67 1 8 10
M  V30 68 1 21 24
M  V30 69 1 51 52
M  V30 70 1 62 63
M  V30 END BOND
M  V30 BEGIN COLLECTION
M  V30 MDLV30/STERAC1 ATOMS=(14 16 17 18 20 24 34 36 42 51 52 57 59 62 63)
M  V30 END COLLECTION
M  V30 END CTAB
M  END
>  <Molecule Name>
_c001

>  <status>
-

>  <cas>
1030825-28-5

>  <name>
M FIDAXOMICIN

>  <ID>
1535

>  <Smiles>
CC[C@@H]([C@@H](/C(/C)=C/C(/C)=C/C[C@H]([C@H](C)O)OC(/C(/CO[C@H]([C@@H]([C@@H]1O)OC)O[C@@H](C)[C@@H]1OC(c(c(CC)c(c(O)c1Cl)Cl)c1O)=O)=C/C=C/C1)=O)O[C@H]([C@@H]([C@@H]2O)O)OC(C)(C)[C@@H]2O)/C=C(\C)/[C@@H]1O

$$$$
_c001
Actelion Java MolfileCreator 2.0

  0  0  0  0  0  0              0 V3000
M  V30 BEGIN CTAB
M  V30 COUNTS 34 38 0 0 0
M  V30 BEGIN ATOM
M  V30 1 O -1.4721 6.2453 0.0 0
M  V30 2 C -0.5211 5.9363 0.0 0
M  V30 3 O -0.2121 4.9853 0.0 0
M  V30 4 N 0.2878 6.5241 0.0 0
M  V30 5 N 0.7878 4.9853 0.0 0
M  V30 6 C 1.0969 5.9363 0.0 0
M  V30 7 C 2.0479 6.2453 0.0 0
M  V30 8 C 2.7911 5.5762 0.0 0
M  V30 9 C 2.2558 7.2235 0.0 0
M  V30 10 C 2.5831 4.598 0.0 0
M  V30 11 C 3.7421 5.8852 0.0 0
M  V30 12 C 3.2069 7.5325 0.0 0
M  V30 13 C 1.6321 4.289 0.0 0
M  V30 14 C 3.3263 3.9289 0.0 0
M  V30 15 C 3.95 6.8634 0.0 0
M  V30 16 C 1.4242 3.3109 0.0 0
M  V30 17 C 3.1184 2.9508 0.0 0
M  V30 18 C 2.1673 2.6418 0.0 0
M  V30 19 C 1.9594 1.6636 0.0 0
M  V30 20 N 2.7026 0.9945 0.0 0
M  V30 21 C 3.6807 1.2024 0.0 0
M  V30 22 C 2.598 0.0 0.0 0
M  V30 23 O 4.0874 2.1159 0.0 0
M  V30 24 N 4.1807 0.3364 0.0 0
M  V30 25 C 1.789 -0.5877 0.0 0
M  V30 26 C 3.5116 -0.4067 0.0 0
M  V30 27 C 5.082 2.2205 0.0 0
M  V30 28 C 0.8755 -0.181 0.0 0
M  V30 29 C 1.8935 -1.5823 0.0 0
M  V30 30 C 3.6161 -1.4012 0.0 0
M  V30 31 C 5.4887 3.134 0.0 0
M  V30 32 O 0.0664 -0.7688 0.0 0
M  V30 33 O 0.7709 0.8134 0.0 0 CHG=-1
M  V30 34 C 2.8071 -1.989 0.0 0
M  V30 END ATOM
M  V30 BEGIN BOND
M  V30 1 2 1 2
M  V30 2 1 2 3
M  V30 3 1 2 4
M  V30 4 1 3 5
M  V30 5 1 4 6
M  V30 6 1 6 7
M  V30 7 2 7 8
M  V30 8 1 7 9
M  V30 9 1 8 10
M  V30 10 1 8 11
M  V30 11 2 9 12
M  V30 12 2 10 13
M  V30 13 1 10 14
M  V30 14 2 11 15
M  V30 15 1 13 16
M  V30 16 2 14 17
M  V30 17 2 16 18
M  V30 18 1 18 19
M  V30 19 1 19 20
M  V30 20 1 20 21
M  V30 21 1 20 22
M  V30 22 1 21 23
M  V30 23 2 21 24
M  V30 24 2 22 25
M  V30 25 1 22 26
M  V30 26 1 23 27
M  V30 27 1 25 28
M  V30 28 1 25 29
M  V30 29 2 26 30
M  V30 30 1 27 31
M  V30 31 2 28 32
M  V30 32 1 28 33
M  V30 33 2 29 34
M  V30 34 2 5 6
M  V30 35 1 12 15
M  V30 36 1 17 18
M  V30 37 1 24 26
M  V30 38 1 30 34
M  V30 END BOND
M  V30 END CTAB
M  END
>  <Molecule Name>
_c001

>  <status>
-

>  <cas>
147403-03-0

>  <name>
M AZILSARTAN KAMEDOXOMIL

>  <ID>
1536

>  <Smiles>
CCOc1nc2cccc(C([O-])=O)c2n1Cc(cc1)ccc1-c(cccc1)c1C(N1)=NOC1=O

$$$$
_c001
Actelion Java MolfileCreator 2.0

  0  0  0  0  0  0              0 V3000
M  V30 BEGIN CTAB
M  V30 COUNTS 27 29 0 0 0
M  V30 BEGIN ATOM
M  V30 1 Cl 2.598 2.25 0.0 0
M  V30 2 C 3.8971 1.5 0.0 0
M  V30 3 C 3.8971 0.0 0.0 0
M  V30 4 C 5.1961 2.25 0.0 0
M  V30 5 N 2.598 -0.75 0.0 0
M  V30 6 C 5.1961 -0.75 0.0 0
M  V30 7 N 6.4951 1.5 0.0 0
M  V30 8 C 1.299 0.0 0.0 0
M  V30 9 Cl 5.1961 -2.25 0.0 0
M  V30 10 C 6.4951 0.0 0.0 0
M  V30 11 O 7.7942 2.25 0.0 0
M  V30 12 O 1.299 1.5 0.0 0
M  V30 13 C 0.0 -0.75 0.0 0
M  V30 14 C -1.299 0.0 0.0 0
M  V30 15 C 0.0 -2.25 0.0 0
M  V30 16 C -2.598 -0.7499 0.0 0
M  V30 17 C -1.299 -3.0 0.0 0
M  V30 18 O -3.8971 0.0 0.0 0
M  V30 19 C -2.598 -2.2499 0.0 0
M  V30 20 C -3.8971 1.5 0.0 0
M  V30 21 O -3.8971 -2.9999 0.0 0
M  V30 22 C -5.1961 2.25 0.0 0
M  V30 23 C -5.1961 -2.2499 0.0 0
M  V30 24 C -5.9461 3.549 0.0 0
M  V30 25 C -6.6961 2.25 0.0 0
M  V30 26 F -5.1961 -0.7499 0.0 0
M  V30 27 F -6.4951 -2.9999 0.0 0
M  V30 END ATOM
M  V30 BEGIN BOND
M  V30 1 1 1 2
M  V30 2 1 2 3
M  V30 3 2 2 4
M  V30 4 2 3 5
M  V30 5 1 3 6
M  V30 6 1 4 7
M  V30 7 1 5 8
M  V30 8 1 6 9
M  V30 9 2 6 10
M  V30 10 1 7 11
M  V30 11 2 8 12
M  V30 12 1 8 13
M  V30 13 2 13 14
M  V30 14 1 13 15
M  V30 15 1 14 16
M  V30 16 2 15 17
M  V30 17 1 16 18
M  V30 18 2 16 19
M  V30 19 1 18 20
M  V30 20 1 19 21
M  V30 21 1 20 22
M  V30 22 1 21 23
M  V30 23 1 22 24
M  V30 24 1 22 25
M  V30 25 1 23 26
M  V30 26 1 23 27
M  V30 27 1 7 10
M  V30 28 1 17 19
M  V30 29 1 24 25
M  V30 END BOND
M  V30 END CTAB
M  END
>  <Molecule Name>
_c001

>  <status>
-

>  <cas>
1026258-58-1

>  <name>
M ROFLUMILAST

>  <ID>
1537

>  <Smiles>
ON(C=C(C1=NC(c(cc2)cc(OCC3CC3)c2OC(F)F)=O)Cl)C=C1Cl

$$$$
_c001
Actelion Java MolfileCreator 2.0

  0  0  0  0  0  0              0 V3000
M  V30 BEGIN CTAB
M  V30 COUNTS 26 26 0 0 0
M  V30 BEGIN ATOM
M  V30 1 P 16.8874 -9.0 0.0 0
M  V30 2 O 15.3874 -9.0 0.0 0
M  V30 3 O 16.8874 -7.5 0.0 0
M  V30 4 O 16.8874 -10.5 0.0 0 CHG=-1
M  V30 5 O 18.3874 -9.0 0.0 0 CHG=-1
M  V30 6 C 15.5884 -6.75 0.0 0
M  V30 7 C 15.5884 -5.25 0.0 0 CFG=1
M  V30 8 N 14.2894 -6.0 0.0 0
M  V30 9 C 16.8874 -4.5 0.0 0
M  V30 10 C 14.2894 -4.5 0.0 0
M  V30 11 O 18.1865 -5.2499 0.0 0
M  V30 12 C 14.2894 -3.0 0.0 0
M  V30 13 C 12.9903 -2.25 0.0 0
M  V30 14 C 12.9903 -0.75 0.0 0
M  V30 15 C 11.6913 -3.0 0.0 0
M  V30 16 C 11.6913 0.0 0.0 0
M  V30 17 C 10.3923 -2.25 0.0 0
M  V30 18 C 10.3923 -0.75 0.0 0
M  V30 19 C 9.0932 0.0 0.0 0
M  V30 20 C 7.7942 -0.75 0.0 0
M  V30 21 C 6.4951 0.0 0.0 0
M  V30 22 C 5.1961 -0.75 0.0 0
M  V30 23 C 3.8971 0.0 0.0 0
M  V30 24 C 2.598 -0.75 0.0 0
M  V30 25 C 1.299 0.0 0.0 0
M  V30 26 C 0.0 -0.75 0.0 0
M  V30 END ATOM
M  V30 BEGIN BOND
M  V30 1 2 1 2
M  V30 2 1 1 3
M  V30 3 1 1 4
M  V30 4 1 1 5
M  V30 5 1 3 6
M  V30 6 1 7 6
M  V30 7 1 7 8 CFG=1
M  V30 8 1 7 9
M  V30 9 1 7 10
M  V30 10 1 9 11
M  V30 11 1 10 12
M  V30 12 1 12 13
M  V30 13 2 13 14
M  V30 14 1 13 15
M  V30 15 1 14 16
M  V30 16 2 15 17
M  V30 17 2 16 18
M  V30 18 1 18 19
M  V30 19 1 19 20
M  V30 20 1 20 21
M  V30 21 1 21 22
M  V30 22 1 22 23
M  V30 23 1 23 24
M  V30 24 1 24 25
M  V30 25 1 25 26
M  V30 26 1 17 18
M  V30 END BOND
M  V30 BEGIN COLLECTION
M  V30 MDLV30/STERAC1 ATOMS=(1 7)
M  V30 END COLLECTION
M  V30 END CTAB
M  END
>  <Molecule Name>
_c001

>  <status>
-

>  <cas>
402616-26-6

>  <name>
M FINGOLIMOD

>  <ID>
1538

>  <Smiles>
CCCCCCCCc1ccc(CCC(CO)(COP([O-])([O-])=O)N)cc1

$$$$
_c001
Actelion Java MolfileCreator 2.0

  0  0  0  0  0  0              0 V3000
M  V30 BEGIN CTAB
M  V30 COUNTS 35 38 0 0 0
M  V30 BEGIN ATOM
M  V30 1 O 5.1961 -0.5 0.0 0
M  V30 2 C 4.3301 0.0 0.0 0
M  V30 3 N 3.4641 -0.5 0.0 0
M  V30 4 C 4.3301 1.0 0.0 0
M  V30 5 C 3.4641 -1.5 0.0 0
M  V30 6 C 2.598 0.0 0.0 0
M  V30 7 C 5.1961 1.4999 0.0 0
M  V30 8 C 3.4641 1.4999 0.0 0
M  V30 9 N 2.598 -1.9999 0.0 0
M  V30 10 C 4.3301 -2.0 0.0 0
M  V30 11 C 1.732 -0.5 0.0 0
M  V30 12 C 5.1961 2.4999 0.0 0
M  V30 13 C 3.4641 2.5 0.0 0
M  V30 14 C 2.598 -2.9999 0.0 0
M  V30 15 C 4.3301 -3.0 0.0 0
M  V30 16 C 0.866 0.0 0.0 0
M  V30 17 N 5.9392 3.1691 0.0 0
M  V30 18 C 4.3301 3.0 0.0 0
M  V30 19 C 3.4641 -3.5 0.0 0
M  V30 20 O 0.866 1.0 0.0 0
M  V30 21 O 0.0 -0.5 0.0 0 CHG=-1
M  V30 22 C 5.5325 4.0826 0.0 0
M  V30 23 N 4.538 3.9781 0.0 0
M  V30 24 C 6.0325 4.9487 0.0 0
M  V30 25 C 3.8689 4.7212 0.0 0
M  V30 26 N 7.0325 4.9487 0.0 0
M  V30 27 C 7.5325 5.8147 0.0 0
M  V30 28 C 8.5325 5.8147 0.0 0
M  V30 29 C 7.0325 6.6807 0.0 0
M  V30 30 C 9.0325 6.6807 0.0 0
M  V30 31 C 7.5325 7.5467 0.0 0
M  V30 32 C 8.5325 7.5467 0.0 0
M  V30 33 C 9.0325 8.4128 0.0 0
M  V30 34 N 10.0325 8.4128 0.0 0 CHG=1
M  V30 35 N 8.5325 9.2788 0.0 0
M  V30 END ATOM
M  V30 BEGIN BOND
M  V30 1 2 1 2
M  V30 2 1 2 3
M  V30 3 1 2 4
M  V30 4 1 3 5
M  V30 5 1 3 6
M  V30 6 2 4 7
M  V30 7 1 4 8
M  V30 8 2 5 9
M  V30 9 1 5 10
M  V30 10 1 6 11
M  V30 11 1 7 12
M  V30 12 2 8 13
M  V30 13 1 9 14
M  V30 14 2 10 15
M  V30 15 1 11 16
M  V30 16 1 12 17
M  V30 17 2 12 18
M  V30 18 2 14 19
M  V30 19 2 16 20
M  V30 20 1 16 21
M  V30 21 2 17 22
M  V30 22 1 18 23
M  V30 23 1 22 24
M  V30 24 1 23 25
M  V30 25 1 24 26
M  V30 26 1 26 27
M  V30 27 2 27 28
M  V30 28 1 27 29
M  V30 29 1 28 30
M  V30 30 2 29 31
M  V30 31 2 30 32
M  V30 32 1 32 33
M  V30 33 2 33 34
M  V30 34 1 33 35
M  V30 35 1 13 18
M  V30 36 1 15 19
M  V30 37 1 22 23
M  V30 38 1 31 32
M  V30 END BOND
M  V30 END CTAB
M  END
>  <Molecule Name>
_c001

>  <status>
-

>  <cas>
211914-51-1

>  <name>
DABIGATRAN

>  <ID>
1539

>  <Smiles>
Cn1c(ccc(C(N(CCC([O-])=O)c2ncccc2)=O)c2)c2nc1CNc(cc1)ccc1C(N)=[NH2+]

$$$$
_c001
Actelion Java MolfileCreator 2.0

  0  0  0  0  0  0              0 V3000
M  V30 BEGIN CTAB
M  V30 COUNTS 34 38 0 0 0
M  V30 BEGIN ATOM
M  V30 1 O -2.9412 -10.8132 0.0 0
M  V30 2 C -2.4771 -9.385 0.0 0
M  V30 3 C -3.4819 -8.2691 0.0 0
M  V30 4 C -1.0083 -9.0728 0.0 0
M  V30 5 C -3.0179 -6.8409 0.0 0
M  V30 6 C -0.5442 -7.6447 0.0 0
M  V30 7 C -1.549 -6.5287 0.0 0
M  V30 8 C -4.0227 -5.725 0.0 0
M  V30 9 C -1.085 -5.1005 0.0 0
M  V30 10 C -3.5586 -4.2968 0.0 0
M  V30 11 C 0.3838 -4.7883 0.0 0 CFG=2
M  V30 12 C -2.0898 -3.9846 0.0 0 CFG=2
M  V30 13 C 1.3886 -5.9043 0.0 0
M  V30 14 C 0.7899 -3.4109 0.0 0
M  V30 15 C -1.6258 -2.5564 0.0 0 CFG=2
M  V30 16 C 0.9245 -7.3325 0.0 0
M  V30 17 C 2.8574 -5.5921 0.0 0
M  V30 18 C -0.1569 -2.2442 0.0 0 CFG=2
M  V30 19 C -2.3766 -1.256 0.0 0
M  V30 20 C 1.9293 -8.4484 0.0 0
M  V30 21 C 3.8622 -6.708 0.0 0
M  V30 22 C 0.0 -0.7508 0.0 0 CFG=2
M  V30 23 C 1.4052 -1.9563 0.0 0
M  V30 24 C -1.3718 -0.14 0.0 0
M  V30 25 C 3.3982 -8.1362 0.0 0
M  V30 26 O 1.3004 0.0 0.0 0
M  V30 27 C 1.2282 -1.3999 0.0 0
M  V30 28 N 4.403 -9.2521 0.0 0
M  V30 29 C 1.3004 1.5016 0.0 0
M  V30 30 O 1.2966 -2.9667 0.0 0
M  V30 31 C 2.5973 -0.8869 0.0 0
M  V30 32 C 5.8718 -8.9399 0.0 0
M  V30 33 O 2.6009 2.2524 0.0 0
M  V30 34 C 0.0 2.2524 0.0 0
M  V30 END ATOM
M  V30 BEGIN BOND
M  V30 1 2 1 2
M  V30 2 1 2 3
M  V30 3 1 2 4
M  V30 4 2 3 5
M  V30 5 1 4 6
M  V30 6 1 5 7
M  V30 7 1 5 8
M  V30 8 2 7 9
M  V30 9 1 8 10
M  V30 10 1 11 9
M  V30 11 1 12 9
M  V30 12 1 11 13 CFG=1
M  V30 13 1 11 14
M  V30 14 1 15 12
M  V30 15 2 13 16
M  V30 16 1 13 17
M  V30 17 1 18 14
M  V30 18 1 15 19 CFG=1
M  V30 19 1 16 20
M  V30 20 2 17 21
M  V30 21 1 22 18
M  V30 22 1 18 23 CFG=1
M  V30 23 1 19 24
M  V30 24 2 20 25
M  V30 25 1 22 26
M  V30 26 1 22 27 CFG=1
M  V30 27 1 25 28
M  V30 28 1 26 29
M  V30 29 2 27 30
M  V30 30 1 27 31
M  V30 31 1 28 32
M  V30 32 2 29 33
M  V30 33 1 29 34
M  V30 34 1 6 7
M  V30 35 1 12 10 CFG=3
M  V30 36 1 15 18
M  V30 37 1 21 25
M  V30 38 1 22 24
M  V30 END BOND
M  V30 BEGIN COLLECTION
M  V30 MDLV30/STERAC1 ATOMS=(5 11 12 15 18 22)
M  V30 END COLLECTION
M  V30 END CTAB
M  END
>  <Molecule Name>
_c001

>  <status>
-

>  <cas>
159681-66-0

>  <name>
M ULIPRISTAL ACETATE

>  <ID>
1540

>  <Smiles>
C[C@@](C[C@H]1c(cc2)ccc2NC)([C@H](CC2)[C@@H](CC3)C1=C(CC1)C3=CC1=O)[C@@]2(C(C)=O)OC(C)=O

$$$$
_c001
Actelion Java MolfileCreator 2.0

  0  0  0  0  0  0              0 V3000
M  V30 BEGIN CTAB
M  V30 COUNTS 24 27 0 0 0
M  V30 BEGIN ATOM
M  V30 1 O 1.732 -0.5 0.0 0
M  V30 2 C 0.866 0.0 0.0 0
M  V30 3 O 0.866 1.0 0.0 0 CHG=-1
M  V30 4 C 0.0 -0.5 0.0 0
M  V30 5 N -0.9135 -0.0932 0.0 0
M  V30 6 C -0.1045 -1.4945 0.0 0
M  V30 7 C -1.5826 -0.8364 0.0 0
M  V30 8 C -1.0773 0.8932 0.0 0
M  V30 9 N -1.0826 -1.7024 0.0 0
M  V30 10 C -2.5808 -0.7766 0.0 0
M  V30 11 C -1.9507 1.3802 0.0 0
M  V30 12 C -3.1565 0.0411 0.0 0
M  V30 13 C -3.0678 -1.65 0.0 0
M  V30 14 C -2.876 1.0009 0.0 0
M  V30 15 C -4.1279 -0.1959 0.0 0
M  V30 16 C -4.0677 -1.6649 0.0 0
M  V30 17 C -2.5549 -2.5084 0.0 0
M  V30 18 C -3.5671 1.7237 0.0 0
M  V30 19 C -4.819 0.5268 0.0 0
M  V30 20 C -4.5547 -2.5383 0.0 0
M  V30 21 C -3.0419 -3.3818 0.0 0
M  V30 22 C -4.5386 1.4867 0.0 0
M  V30 23 N -4.0418 -3.3968 0.0 0
M  V30 24 C -4.5288 -4.2702 0.0 0
M  V30 END ATOM
M  V30 BEGIN BOND
M  V30 1 2 1 2
M  V30 2 1 2 3
M  V30 3 1 2 4
M  V30 4 1 4 5
M  V30 5 2 4 6
M  V30 6 1 5 7
M  V30 7 1 5 8
M  V30 8 1 6 9
M  V30 9 1 7 10
M  V30 10 1 8 11
M  V30 11 1 10 12
M  V30 12 2 10 13
M  V30 13 1 11 14
M  V30 14 1 12 15
M  V30 15 1 13 16
M  V30 16 1 13 17
M  V30 17 1 14 18
M  V30 18 2 15 19
M  V30 19 1 16 20
M  V30 20 1 17 21
M  V30 21 2 18 22
M  V30 22 1 20 23
M  V30 23 1 23 24
M  V30 24 2 7 9
M  V30 25 2 12 14
M  V30 26 1 19 22
M  V30 27 1 21 23
M  V30 END BOND
M  V30 END CTAB
M  END
>  <Molecule Name>
_c001

>  <status>
-

>  <cas>
147083-93-0

>  <name>
M ALCAFTADINE

>  <ID>
1541

>  <Smiles>
CN(CC1)CCC1=C(c1ncc(C([O-])=O)n1CC1)c2c1cccc2

$$$$
_c001
Actelion Java MolfileCreator 2.0

  0  0  0  0  0  0              0 V3000
M  V30 BEGIN CTAB
M  V30 COUNTS 24 26 0 0 0
M  V30 BEGIN ATOM
M  V30 1 S 5.1961 1.5 0.0 0
M  V30 2 C 4.3301 1.0 0.0 0 CFG=2
M  V30 3 C 3.4641 1.5 0.0 0
M  V30 4 C 4.3301 0.0 0.0 0
M  V30 5 C 3.4641 2.5 0.0 0
M  V30 6 C 2.598 0.9999 0.0 0
M  V30 7 C 3.4641 -0.4999 0.0 0
M  V30 8 C 4.3301 3.0 0.0 0
M  V30 9 N 2.598 0.0 0.0 0
M  V30 10 O 5.1961 2.5 0.0 0
M  V30 11 O 4.3301 4.0 0.0 0 CHG=-1
M  V30 12 C 1.732 -0.5 0.0 0 CFG=1
M  V30 13 C 1.732 -1.5 0.0 0
M  V30 14 C 0.866 0.0 0.0 0
M  V30 15 C 2.598 -1.9999 0.0 0
M  V30 16 C 0.866 -2.0 0.0 0
M  V30 17 O 0.866 1.0 0.0 0
M  V30 18 C 0.0 -0.5 0.0 0
M  V30 19 F 3.4641 -1.4999 0.0 0
M  V30 20 C 2.598 -2.9999 0.0 0
M  V30 21 C 0.866 -3.0 0.0 0
M  V30 22 C -1.0 -0.4999 0.0 0
M  V30 23 C -0.5 -1.366 0.0 0
M  V30 24 C 1.732 -3.5 0.0 0
M  V30 END ATOM
M  V30 BEGIN BOND
M  V30 1 1 2 1 CFG=1
M  V30 2 1 2 3
M  V30 3 1 2 4
M  V30 4 2 3 5
M  V30 5 1 3 6
M  V30 6 1 4 7
M  V30 7 1 5 8
M  V30 8 1 6 9
M  V30 9 2 8 10
M  V30 10 1 8 11
M  V30 11 1 12 9 CFG=1
M  V30 12 1 12 13
M  V30 13 1 12 14
M  V30 14 2 13 15
M  V30 15 1 13 16
M  V30 16 2 14 17
M  V30 17 1 14 18
M  V30 18 1 15 19
M  V30 19 1 15 20
M  V30 20 2 16 21
M  V30 21 1 18 22
M  V30 22 1 18 23
M  V30 23 2 20 24
M  V30 24 1 7 9
M  V30 25 1 21 24
M  V30 26 1 22 23
M  V30 END BOND
M  V30 BEGIN COLLECTION
M  V30 MDLV30/STERAC1 ATOMS=(2 2 12)
M  V30 END COLLECTION
M  V30 END CTAB
M  END
>  <Molecule Name>
_c001

>  <status>
-

>  <cas>
204204-73-9

>  <name>
M PRASUGREL

>  <ID>
1542

>  <Smiles>
[O-]C(/C=C(/CN(CC1)[C@H](C(C2CC2)=O)c(cccc2)c2F)\[C@H]1S)=O

$$$$
_c001
Actelion Java MolfileCreator 2.0

  0  0  0  0  0  0              0 V3000
M  V30 BEGIN CTAB
M  V30 COUNTS 24 26 0 0 0
M  V30 BEGIN ATOM
M  V30 1 S 5.1961 1.5 0.0 0
M  V30 2 C 4.3301 1.0 0.0 0 CFG=2
M  V30 3 C 3.4641 1.5 0.0 0
M  V30 4 C 4.3301 0.0 0.0 0
M  V30 5 C 3.4641 2.5 0.0 0
M  V30 6 C 2.598 0.9999 0.0 0
M  V30 7 C 3.4641 -0.4999 0.0 0
M  V30 8 C 4.3301 3.0 0.0 0
M  V30 9 N 2.598 0.0 0.0 0
M  V30 10 O 5.1961 2.5 0.0 0
M  V30 11 O 4.3301 4.0 0.0 0 CHG=-1
M  V30 12 C 1.732 -0.5 0.0 0 CFG=2
M  V30 13 C 1.732 -1.5 0.0 0
M  V30 14 C 0.866 0.0 0.0 0
M  V30 15 C 2.598 -1.9999 0.0 0
M  V30 16 C 0.866 -2.0 0.0 0
M  V30 17 O 0.866 1.0 0.0 0
M  V30 18 C 0.0 -0.5 0.0 0
M  V30 19 F 3.4641 -1.4999 0.0 0
M  V30 20 C 2.598 -2.9999 0.0 0
M  V30 21 C 0.866 -3.0 0.0 0
M  V30 22 C -1.0 -0.4999 0.0 0
M  V30 23 C -0.5 -1.366 0.0 0
M  V30 24 C 1.732 -3.5 0.0 0
M  V30 END ATOM
M  V30 BEGIN BOND
M  V30 1 1 2 1 CFG=1
M  V30 2 1 2 3
M  V30 3 1 2 4
M  V30 4 2 3 5
M  V30 5 1 3 6
M  V30 6 1 4 7
M  V30 7 1 5 8
M  V30 8 1 6 9
M  V30 9 2 8 10
M  V30 10 1 8 11
M  V30 11 1 12 9 CFG=3
M  V30 12 1 12 13
M  V30 13 1 12 14
M  V30 14 2 13 15
M  V30 15 1 13 16
M  V30 16 2 14 17
M  V30 17 1 14 18
M  V30 18 1 15 19
M  V30 19 1 15 20
M  V30 20 2 16 21
M  V30 21 1 18 22
M  V30 22 1 18 23
M  V30 23 2 20 24
M  V30 24 1 7 9
M  V30 25 1 21 24
M  V30 26 1 22 23
M  V30 END BOND
M  V30 BEGIN COLLECTION
M  V30 MDLV30/STERAC1 ATOMS=(2 2 12)
M  V30 END COLLECTION
M  V30 END CTAB
M  END
>  <Molecule Name>
_c001

>  <status>
-

>  <cas>
204204-73-9

>  <name>
M PRASUGREL

>  <ID>
1543

>  <Smiles>
[O-]C(/C=C(/CN(CC1)[C@@H](C(C2CC2)=O)c(cccc2)c2F)\[C@H]1S)=O

$$$$
_c001
Actelion Java MolfileCreator 2.0

  0  0  0  0  0  0              0 V3000
M  V30 BEGIN CTAB
M  V30 COUNTS 24 26 0 0 0
M  V30 BEGIN ATOM
M  V30 1 S 5.1961 1.5 0.0 0
M  V30 2 C 4.3301 1.0 0.0 0 CFG=2
M  V30 3 C 3.4641 1.5 0.0 0
M  V30 4 C 4.3301 0.0 0.0 0
M  V30 5 C 3.4641 2.5 0.0 0
M  V30 6 C 2.598 0.9999 0.0 0
M  V30 7 C 3.4641 -0.4999 0.0 0
M  V30 8 C 4.3301 3.0 0.0 0
M  V30 9 N 2.598 0.0 0.0 0
M  V30 10 O 5.1961 2.5 0.0 0
M  V30 11 O 4.3301 4.0 0.0 0 CHG=-1
M  V30 12 C 1.732 -0.5 0.0 0 CFG=1
M  V30 13 C 1.732 -1.5 0.0 0
M  V30 14 C 0.866 0.0 0.0 0
M  V30 15 C 2.598 -1.9999 0.0 0
M  V30 16 C 0.866 -2.0 0.0 0
M  V30 17 O 0.866 1.0 0.0 0
M  V30 18 C 0.0 -0.5 0.0 0
M  V30 19 F 3.4641 -1.4999 0.0 0
M  V30 20 C 2.598 -2.9999 0.0 0
M  V30 21 C 0.866 -3.0 0.0 0
M  V30 22 C -1.0 -0.4999 0.0 0
M  V30 23 C -0.5 -1.366 0.0 0
M  V30 24 C 1.732 -3.5 0.0 0
M  V30 END ATOM
M  V30 BEGIN BOND
M  V30 1 1 2 1 CFG=1
M  V30 2 1 2 3
M  V30 3 1 2 4
M  V30 4 2 3 5
M  V30 5 1 3 6
M  V30 6 1 4 7
M  V30 7 1 5 8
M  V30 8 1 6 9
M  V30 9 2 8 10
M  V30 10 1 8 11
M  V30 11 1 12 9 CFG=1
M  V30 12 1 12 13
M  V30 13 1 12 14
M  V30 14 2 13 15
M  V30 15 1 13 16
M  V30 16 2 14 17
M  V30 17 1 14 18
M  V30 18 1 15 19
M  V30 19 1 15 20
M  V30 20 2 16 21
M  V30 21 1 18 22
M  V30 22 1 18 23
M  V30 23 2 20 24
M  V30 24 1 7 9
M  V30 25 1 21 24
M  V30 26 1 22 23
M  V30 END BOND
M  V30 BEGIN COLLECTION
M  V30 MDLV30/STERAC1 ATOMS=(2 2 12)
M  V30 END COLLECTION
M  V30 END CTAB
M  END
>  <Molecule Name>
_c001

>  <status>
-

>  <cas>
204204-73-9

>  <name>
M PRASUGREL

>  <ID>
1544

>  <Smiles>
[O-]C(/C=C(/CN(CC1)[C@H](C(C2CC2)=O)c(cccc2)c2F)\[C@H]1S)=O

$$$$
_c001
Actelion Java MolfileCreator 2.0

  0  0  0  0  0  0              0 V3000
M  V30 BEGIN CTAB
M  V30 COUNTS 24 26 0 0 0
M  V30 BEGIN ATOM
M  V30 1 S 5.1961 1.5 0.0 0
M  V30 2 C 4.3301 1.0 0.0 0 CFG=2
M  V30 3 C 3.4641 1.5 0.0 0
M  V30 4 C 4.3301 0.0 0.0 0
M  V30 5 C 3.4641 2.5 0.0 0
M  V30 6 C 2.598 0.9999 0.0 0
M  V30 7 C 3.4641 -0.4999 0.0 0
M  V30 8 C 4.3301 3.0 0.0 0
M  V30 9 N 2.598 0.0 0.0 0
M  V30 10 O 5.1961 2.5 0.0 0
M  V30 11 O 4.3301 4.0 0.0 0 CHG=-1
M  V30 12 C 1.732 -0.5 0.0 0 CFG=2
M  V30 13 C 1.732 -1.5 0.0 0
M  V30 14 C 0.866 0.0 0.0 0
M  V30 15 C 2.598 -1.9999 0.0 0
M  V30 16 C 0.866 -2.0 0.0 0
M  V30 17 O 0.866 1.0 0.0 0
M  V30 18 C 0.0 -0.5 0.0 0
M  V30 19 F 3.4641 -1.4999 0.0 0
M  V30 20 C 2.598 -2.9999 0.0 0
M  V30 21 C 0.866 -3.0 0.0 0
M  V30 22 C -1.0 -0.4999 0.0 0
M  V30 23 C -0.5 -1.366 0.0 0
M  V30 24 C 1.732 -3.5 0.0 0
M  V30 END ATOM
M  V30 BEGIN BOND
M  V30 1 1 2 1 CFG=1
M  V30 2 1 2 3
M  V30 3 1 2 4
M  V30 4 2 3 5
M  V30 5 1 3 6
M  V30 6 1 4 7
M  V30 7 1 5 8
M  V30 8 1 6 9
M  V30 9 2 8 10
M  V30 10 1 8 11
M  V30 11 1 12 9 CFG=3
M  V30 12 1 12 13
M  V30 13 1 12 14
M  V30 14 2 13 15
M  V30 15 1 13 16
M  V30 16 2 14 17
M  V30 17 1 14 18
M  V30 18 1 15 19
M  V30 19 1 15 20
M  V30 20 2 16 21
M  V30 21 1 18 22
M  V30 22 1 18 23
M  V30 23 2 20 24
M  V30 24 1 7 9
M  V30 25 1 21 24
M  V30 26 1 22 23
M  V30 END BOND
M  V30 BEGIN COLLECTION
M  V30 MDLV30/STERAC1 ATOMS=(2 2 12)
M  V30 END COLLECTION
M  V30 END CTAB
M  END
>  <Molecule Name>
_c001

>  <status>
-

>  <cas>
204204-73-9

>  <name>
M PRASUGREL

>  <ID>
1545

>  <Smiles>
[O-]C(/C=C(/CN(CC1)[C@@H](C(C2CC2)=O)c(cccc2)c2F)\[C@H]1S)=O

$$$$
_c001
Actelion Java MolfileCreator 2.0

  0  0  0  0  0  0              0 V3000
M  V30 BEGIN CTAB
M  V30 COUNTS 24 28 0 0 0
M  V30 BEGIN ATOM
M  V30 1 O 3.9518 0.0219 0.0 0
M  V30 2 C 2.53 0.509 0.0 0
M  V30 3 N 2.241 1.9838 0.0 0
M  V30 4 C 1.3973 -0.4787 0.0 0 CFG=1
M  V30 5 C 3.2642 3.0845 0.0 0 CFG=2
M  V30 6 C 0.8779 2.6168 0.0 0 CFG=2
M  V30 7 N 1.6864 -1.9535 0.0 0
M  V30 8 C 0.0 0.0 0.0 0 CFG=2
M  V30 9 C 4.7561 2.9036 0.0 0
M  V30 10 C 2.5336 4.3978 0.0 0
M  V30 11 C 1.0588 4.1087 0.0 0 CFG=2
M  V30 12 C -0.3236 3.5194 0.0 0
M  V30 13 C 0.0258 1.6302 0.0 0
M  V30 14 C -1.1091 -0.4263 0.0 0
M  V30 15 C -0.8514 -1.1669 0.0 0
M  V30 16 N 6.2481 2.7228 0.0 0
M  V30 17 C -1.5008 2.1477 0.0 0 CFG=2
M  V30 18 C -2.8927 0.1022 0.0 0 CFG=2
M  V30 19 C -2.3434 -0.685 0.0 0 CFG=2
M  V30 20 O -1.5464 3.6499 0.0 0
M  V30 21 C -2.7733 1.6337 0.0 0
M  V30 22 C -2.1849 1.1756 0.0 0
M  V30 23 O -4.1714 0.5954 0.0 0
M  V30 24 C -3.7133 -1.0609 0.0 0
M  V30 END ATOM
M  V30 BEGIN BOND
M  V30 1 2 1 2
M  V30 2 1 2 3
M  V30 3 1 4 2
M  V30 4 1 5 3
M  V30 5 1 6 3 CFG=1
M  V30 6 1 4 7 CFG=1
M  V30 7 1 8 4
M  V30 8 1 5 9 CFG=1
M  V30 9 1 5 10
M  V30 10 1 11 6
M  V30 11 1 6 12
M  V30 12 1 8 13 CFG=3
M  V30 13 1 8 14
M  V30 14 1 8 15
M  V30 15 3 9 16
M  V30 16 1 17 13
M  V30 17 1 18 14
M  V30 18 1 19 15 CFG=1
M  V30 19 1 17 20 CFG=3
M  V30 20 1 17 21
M  V30 21 1 17 22
M  V30 22 1 18 23 CFG=1
M  V30 23 1 18 24
M  V30 24 1 11 10 CFG=1
M  V30 25 1 11 12
M  V30 26 1 18 21
M  V30 27 1 19 22
M  V30 28 1 19 24
M  V30 END BOND
M  V30 BEGIN COLLECTION
M  V30 MDLV30/STEABS ATOMS=(4 8 17 18 19)
M  V30 MDLV30/STERAC1 ATOMS=(4 4 5 6 11)
M  V30 END COLLECTION
M  V30 END CTAB
M  END
>  <Molecule Name>
_c001

>  <status>
-

>  <cas>
841302-24-7

>  <name>
M SAXAGLIPTIN

>  <ID>
1546

>  <Smiles>
N[C@@H]([C@@](C[C@@H](C1)C2)(C[C@]1(C1)O)C[C@]12O)C(N([C@@H](C1)[C@@H]1C1)[C@@H]1C#N)=O

$$$$
_c001
Actelion Java MolfileCreator 2.0

  0  0  0  0  0  0              0 V3000
M  V30 BEGIN CTAB
M  V30 COUNTS 31 34 0 0 0
M  V30 BEGIN ATOM
M  V30 1 S 6.1667 0.0054 0.0 0
M  V30 2 C 7.1448 -0.2024 0.0 0
M  V30 3 C 6.0621 1.0 0.0 0 CFG=2
M  V30 4 O 7.5515 -1.1159 0.0 0
M  V30 5 N 7.6448 0.6635 0.0 0
M  V30 6 C 6.9757 1.4067 0.0 0
M  V30 7 C 5.1961 1.5 0.0 0
M  V30 8 O 7.1836 2.3848 0.0 0
M  V30 9 C 4.3301 1.0 0.0 0
M  V30 10 C 3.4641 1.5 0.0 0
M  V30 11 C 4.3301 0.0 0.0 0
M  V30 12 C 2.598 0.9999 0.0 0
M  V30 13 C 3.4641 -0.4999 0.0 0
M  V30 14 C 2.598 0.0 0.0 0
M  V30 15 O 1.732 -0.5 0.0 0
M  V30 16 C 0.866 0.0 0.0 0
M  V30 17 C 0.0 -0.5 0.0 0 CFG=2
M  V30 18 O -0.866 0.0 0.0 0
M  V30 19 C 0.0 -1.4999 0.0 0
M  V30 20 C 0.866 -1.0 0.0 0
M  V30 21 C -1.732 -0.4999 0.0 0
M  V30 22 C -0.866 -1.9999 0.0 0
M  V30 23 C -1.732 -1.4999 0.0 0
M  V30 24 C -2.598 0.0 0.0 0
M  V30 25 C -2.598 -1.9999 0.0 0
M  V30 26 C -3.4641 -0.4999 0.0 0
M  V30 27 C -2.598 1.0 0.0 0
M  V30 28 C -3.4641 -1.4999 0.0 0
M  V30 29 C -2.598 -2.9999 0.0 0
M  V30 30 C -4.3301 0.0 0.0 0
M  V30 31 O -4.3301 -1.9999 0.0 0
M  V30 END ATOM
M  V30 BEGIN BOND
M  V30 1 1 1 2
M  V30 2 1 3 1
M  V30 3 2 2 4
M  V30 4 1 2 5
M  V30 5 1 3 6
M  V30 6 1 3 7 CFG=1
M  V30 7 2 6 8
M  V30 8 1 7 9
M  V30 9 2 9 10
M  V30 10 1 9 11
M  V30 11 1 10 12
M  V30 12 2 11 13
M  V30 13 2 12 14
M  V30 14 1 14 15
M  V30 15 1 15 16
M  V30 16 1 17 16
M  V30 17 1 17 18
M  V30 18 1 17 19
M  V30 19 1 17 20 CFG=3
M  V30 20 1 18 21
M  V30 21 1 19 22
M  V30 22 2 21 23
M  V30 23 1 21 24
M  V30 24 1 23 25
M  V30 25 2 24 26
M  V30 26 1 24 27
M  V30 27 2 25 28
M  V30 28 1 25 29
M  V30 29 1 26 30
M  V30 30 1 28 31
M  V30 31 1 5 6
M  V30 32 1 13 14
M  V30 33 1 22 23
M  V30 34 1 26 28
M  V30 END BOND
M  V30 BEGIN COLLECTION
M  V30 MDLV30/STERAC1 ATOMS=(2 3 17)
M  V30 END COLLECTION
M  V30 END CTAB
M  END
>  <Molecule Name>
_c001

>  <status>
DISCONTINUED

>  <cas>
97322-87-7

>  <name>
TROGLITAZONE

>  <ID>
1547

>  <Smiles>
C[C@](COc1ccc(C[C@@H](C(N2)=O)SC2=O)cc1)(CC1)Oc(c(C)c2C)c1c(C)c2O

$$$$
_c001
Actelion Java MolfileCreator 2.0

  0  0  0  0  0  0              0 V3000
M  V30 BEGIN CTAB
M  V30 COUNTS 31 34 0 0 0
M  V30 BEGIN ATOM
M  V30 1 S 6.1667 0.0054 0.0 0
M  V30 2 C 7.1448 -0.2024 0.0 0
M  V30 3 C 6.0621 1.0 0.0 0 CFG=1
M  V30 4 O 7.5515 -1.1159 0.0 0
M  V30 5 N 7.6448 0.6635 0.0 0
M  V30 6 C 6.9757 1.4067 0.0 0
M  V30 7 C 5.1961 1.5 0.0 0
M  V30 8 O 7.1836 2.3848 0.0 0
M  V30 9 C 4.3301 1.0 0.0 0
M  V30 10 C 3.4641 1.5 0.0 0
M  V30 11 C 4.3301 0.0 0.0 0
M  V30 12 C 2.598 0.9999 0.0 0
M  V30 13 C 3.4641 -0.4999 0.0 0
M  V30 14 C 2.598 0.0 0.0 0
M  V30 15 O 1.732 -0.5 0.0 0
M  V30 16 C 0.866 0.0 0.0 0
M  V30 17 C 0.0 -0.5 0.0 0 CFG=2
M  V30 18 O -0.866 0.0 0.0 0
M  V30 19 C 0.0 -1.4999 0.0 0
M  V30 20 C 0.866 -1.0 0.0 0
M  V30 21 C -1.732 -0.4999 0.0 0
M  V30 22 C -0.866 -1.9999 0.0 0
M  V30 23 C -1.732 -1.4999 0.0 0
M  V30 24 C -2.598 0.0 0.0 0
M  V30 25 C -2.598 -1.9999 0.0 0
M  V30 26 C -3.4641 -0.4999 0.0 0
M  V30 27 C -2.598 1.0 0.0 0
M  V30 28 C -3.4641 -1.4999 0.0 0
M  V30 29 C -2.598 -2.9999 0.0 0
M  V30 30 C -4.3301 0.0 0.0 0
M  V30 31 O -4.3301 -1.9999 0.0 0
M  V30 END ATOM
M  V30 BEGIN BOND
M  V30 1 1 1 2
M  V30 2 1 3 1
M  V30 3 2 2 4
M  V30 4 1 2 5
M  V30 5 1 3 6
M  V30 6 1 3 7 CFG=3
M  V30 7 2 6 8
M  V30 8 1 7 9
M  V30 9 2 9 10
M  V30 10 1 9 11
M  V30 11 1 10 12
M  V30 12 2 11 13
M  V30 13 2 12 14
M  V30 14 1 14 15
M  V30 15 1 15 16
M  V30 16 1 17 16
M  V30 17 1 17 18
M  V30 18 1 17 19
M  V30 19 1 17 20 CFG=3
M  V30 20 1 18 21
M  V30 21 1 19 22
M  V30 22 2 21 23
M  V30 23 1 21 24
M  V30 24 1 23 25
M  V30 25 2 24 26
M  V30 26 1 24 27
M  V30 27 2 25 28
M  V30 28 1 25 29
M  V30 29 1 26 30
M  V30 30 1 28 31
M  V30 31 1 5 6
M  V30 32 1 13 14
M  V30 33 1 22 23
M  V30 34 1 26 28
M  V30 END BOND
M  V30 BEGIN COLLECTION
M  V30 MDLV30/STERAC1 ATOMS=(2 3 17)
M  V30 END COLLECTION
M  V30 END CTAB
M  END
>  <Molecule Name>
_c001

>  <status>
DISCONTINUED

>  <cas>
97322-87-7

>  <name>
TROGLITAZONE

>  <ID>
1548

>  <Smiles>
C[C@](COc1ccc(C[C@H](C(N2)=O)SC2=O)cc1)(CC1)Oc(c(C)c2C)c1c(C)c2O

$$$$
_c001
Actelion Java MolfileCreator 2.0

  0  0  0  0  0  0              0 V3000
M  V30 BEGIN CTAB
M  V30 COUNTS 25 26 0 0 0
M  V30 BEGIN ATOM
M  V30 1 O 9.0932 1.5 0.0 0
M  V30 2 C 9.0932 0.0 0.0 0
M  V30 3 C 7.7942 -0.75 0.0 0
M  V30 4 C 10.3923 -0.7499 0.0 0
M  V30 5 C 7.7942 -2.25 0.0 0
M  V30 6 C 6.4951 0.0 0.0 0 CFG=2
M  V30 7 C 10.3923 -2.2499 0.0 0
M  V30 8 C 9.0932 -2.9999 0.0 0
M  V30 9 C 6.4951 1.5 0.0 0
M  V30 10 C 5.1961 -0.75 0.0 0
M  V30 11 C 9.0932 -4.5 0.0 0
M  V30 12 C 7.7942 2.2499 0.0 0
M  V30 13 C 5.1961 2.25 0.0 0
M  V30 14 C 3.8971 0.0 0.0 0
M  V30 15 O 10.3923 -5.25 0.0 0
M  V30 16 C 7.7942 3.75 0.0 0
M  V30 17 C 5.1961 3.75 0.0 0
M  V30 18 N 2.598 -0.75 0.0 0
M  V30 19 C 6.4951 4.5 0.0 0
M  V30 20 C 2.598 -2.25 0.0 0
M  V30 21 C 1.299 0.0 0.0 0
M  V30 22 C 1.299 -3.0 0.0 0
M  V30 23 C 3.8971 -3.0 0.0 0
M  V30 24 C 1.299 1.5 0.0 0
M  V30 25 C 0.0 -0.75 0.0 0
M  V30 END ATOM
M  V30 BEGIN BOND
M  V30 1 1 1 2
M  V30 2 2 2 3
M  V30 3 1 2 4
M  V30 4 1 3 5
M  V30 5 1 6 3
M  V30 6 2 4 7
M  V30 7 2 5 8
M  V30 8 1 6 9
M  V30 9 1 6 10 CFG=1
M  V30 10 1 8 11
M  V30 11 2 9 12
M  V30 12 1 9 13
M  V30 13 1 10 14
M  V30 14 1 11 15
M  V30 15 1 12 16
M  V30 16 2 13 17
M  V30 17 1 14 18
M  V30 18 2 16 19
M  V30 19 1 18 20
M  V30 20 1 18 21
M  V30 21 1 20 22
M  V30 22 1 20 23
M  V30 23 1 21 24
M  V30 24 1 21 25
M  V30 25 1 7 8
M  V30 26 1 17 19
M  V30 END BOND
M  V30 BEGIN COLLECTION
M  V30 MDLV30/STERAC1 ATOMS=(1 6)
M  V30 END COLLECTION
M  V30 END CTAB
M  END
>  <Molecule Name>
_c001

>  <status>
-

>  <cas>
207679-81-0

>  <name>
M FESOTERODINE

>  <ID>
1549

>  <Smiles>
CC(C)N(CCC(c1ccccc1)c(cc(CO)cc1)c1O)C(C)C

$$$$
_c001
Actelion Java MolfileCreator 2.0

  0  0  0  0  0  0              0 V3000
M  V30 BEGIN CTAB
M  V30 COUNTS 33 36 0 0 0
M  V30 BEGIN ATOM
M  V30 1 F -0.1375 -5.8719 0.0 0
M  V30 2 C -1.084 -5.0959 0.0 0 CFG=2
M  V30 3 C -1.5476 -6.5228 0.0 0 CFG=2
M  V30 4 C 0.3834 -4.784 0.0 0 CFG=1
M  V30 5 C -2.0879 -3.981 0.0 0 CFG=2
M  V30 6 C -3.0151 -6.8347 0.0 0
M  V30 7 C -0.5437 -7.6377 0.0 0
M  V30 8 C 0.2949 -6.2108 0.0 0
M  V30 9 O 1.3873 -5.8989 0.0 0
M  V30 10 C 0.7892 -3.4078 0.0 0
M  V30 11 C -1.6243 -2.5541 0.0 0 CFG=1
M  V30 12 C -3.5554 -4.2929 0.0 0
M  V30 13 C -3.4788 -8.2616 0.0 0
M  V30 14 C -4.019 -5.7198 0.0 0 CFG=2
M  V30 15 C -1.0073 -9.0646 0.0 0
M  V30 16 C -0.1568 -2.2422 0.0 0 CFG=1
M  V30 17 C -2.3744 -1.2548 0.0 0
M  V30 18 C -2.4749 -9.3765 0.0 0
M  V30 19 F -5.4865 -6.0317 0.0 0
M  V30 20 C 0.0 -0.7501 0.0 0 CFG=1
M  V30 21 C 1.401 -1.9641 0.0 0
M  V30 22 C -1.3705 -0.1399 0.0 0
M  V30 23 O -2.9385 -10.8034 0.0 0
M  V30 24 O 1.2992 0.0 0.0 0
M  V30 25 C 1.2288 -1.4027 0.0 0
M  V30 26 C 1.2992 1.5002 0.0 0
M  V30 27 O 2.595 -0.8861 0.0 0
M  V30 28 C 1.2954 -2.964 0.0 0
M  V30 29 O 0.0 2.2504 0.0 0
M  V30 30 C 2.5985 2.2504 0.0 0
M  V30 31 O 2.4379 -3.8826 0.0 0
M  V30 32 C 2.5985 3.7507 0.0 0
M  V30 33 C 3.8978 4.5008 0.0 0
M  V30 END ATOM
M  V30 BEGIN BOND
M  V30 1 1 2 1 CFG=1
M  V30 2 1 3 2
M  V30 3 1 4 2
M  V30 4 1 5 2
M  V30 5 1 3 6
M  V30 6 1 3 7
M  V30 7 1 3 8 CFG=3
M  V30 8 1 4 9 CFG=3
M  V30 9 1 4 10
M  V30 10 1 11 5
M  V30 11 1 5 12 CFG=1
M  V30 12 2 6 13
M  V30 13 1 14 6
M  V30 14 2 7 15
M  V30 15 1 16 10
M  V30 16 1 11 17 CFG=3
M  V30 17 1 13 18
M  V30 18 1 14 19 CFG=1
M  V30 19 1 20 16
M  V30 20 1 16 21 CFG=3
M  V30 21 1 17 22
M  V30 22 2 18 23
M  V30 23 1 20 24
M  V30 24 1 20 25 CFG=3
M  V30 25 1 24 26
M  V30 26 2 25 27
M  V30 27 1 25 28
M  V30 28 2 26 29
M  V30 29 1 26 30
M  V30 30 1 28 31
M  V30 31 1 30 32
M  V30 32 1 32 33
M  V30 33 1 11 16
M  V30 34 1 12 14
M  V30 35 1 15 18
M  V30 36 1 20 22
M  V30 END BOND
M  V30 BEGIN COLLECTION
M  V30 MDLV30/STERAC1 ATOMS=(8 2 3 4 5 11 14 16 20)
M  V30 END COLLECTION
M  V30 END CTAB
M  END
>  <Molecule Name>
_c001

>  <status>
-

>  <cas>
23640-96-2

>  <name>
M DIFLUPREDNATE

>  <ID>
1550

>  <Smiles>
CCCC(O[C@](CC1)([C@@](C)(C[C@@H]2O)[C@@H]1[C@H](C[C@@H](C([C@]1(C)C=C3)=CC3=O)F)[C@@]12F)C(CO)=O)=O

$$$$
_c001
Actelion Java MolfileCreator 2.0

  0  0  0  0  0  0              0 V3000
M  V30 BEGIN CTAB
M  V30 COUNTS 30 31 0 0 0
M  V30 BEGIN ATOM
M  V30 1 Cl 9.1132 1.6931 0.0 0
M  V30 2 C 10.4787 2.2687 0.0 0
M  V30 3 C 10.4787 3.7811 0.0 0
M  V30 4 C 11.7885 1.5124 0.0 0
M  V30 5 Cl 9.1688 4.5374 0.0 0
M  V30 6 C 11.7885 4.5374 0.0 0
M  V30 7 C 13.0984 2.2687 0.0 0
M  V30 8 C 11.7885 0.0 0.0 0 CFG=2
M  V30 9 C 13.0984 3.7811 0.0 0
M  V30 10 C 10.4787 -0.7562 0.0 0
M  V30 11 C 13.0984 -0.7562 0.0 0
M  V30 12 C 10.4787 -2.2687 0.0 0
M  V30 13 C 9.1688 0.0 0.0 0
M  V30 14 C 13.0984 -2.2687 0.0 0
M  V30 15 C 14.4082 0.0 0.0 0
M  V30 16 N 11.7885 -3.0249 0.0 0
M  V30 17 C 9.1688 -3.0249 0.0 0
M  V30 18 O 9.28 1.151 0.0 0
M  V30 19 O 7.859 -0.7562 0.0 0
M  V30 20 C 14.4082 -3.0249 0.0 0
M  V30 21 O 15.7181 -0.7562 0.0 0
M  V30 22 O 14.4082 1.5124 0.0 0
M  V30 23 C 6.5492 0.0 0.0 0
M  V30 24 C 15.7181 2.2687 0.0 0
M  V30 25 O 5.2393 -0.7562 0.0 0
M  V30 26 C 3.9295 0.0 0.0 0
M  V30 27 O 3.9295 1.5124 0.0 0
M  V30 28 C 2.6196 -0.7562 0.0 0
M  V30 29 C 1.3098 0.0 0.0 0
M  V30 30 C 0.0 -0.7562 0.0 0
M  V30 END ATOM
M  V30 BEGIN BOND
M  V30 1 1 1 2
M  V30 2 2 2 3
M  V30 3 1 2 4
M  V30 4 1 3 5
M  V30 5 1 3 6
M  V30 6 2 4 7
M  V30 7 1 8 4 CFG=1
M  V30 8 2 6 9
M  V30 9 1 8 10
M  V30 10 1 8 11
M  V30 11 2 10 12
M  V30 12 1 10 13
M  V30 13 2 11 14
M  V30 14 1 11 15
M  V30 15 1 12 16
M  V30 16 1 12 17
M  V30 17 2 13 18
M  V30 18 1 13 19
M  V30 19 1 14 20
M  V30 20 2 15 21
M  V30 21 1 15 22
M  V30 22 1 19 23
M  V30 23 1 22 24
M  V30 24 1 23 25
M  V30 25 1 25 26
M  V30 26 2 26 27
M  V30 27 1 26 28
M  V30 28 1 28 29
M  V30 29 1 29 30
M  V30 30 1 7 9
M  V30 31 1 14 16
M  V30 END BOND
M  V30 BEGIN COLLECTION
M  V30 MDLV30/STERAC1 ATOMS=(1 8)
M  V30 END COLLECTION
M  V30 END CTAB
M  END
>  <Molecule Name>
_c001

>  <status>
-

>  <cas>
167221-71-8

>  <name>
CLEVIDIPINE

>  <ID>
1551

>  <Smiles>
CCCC(OCOC(C(C1c2cccc(Cl)c2Cl)=C(C)NC(C)=C1C(OC)=O)=O)=O

$$$$
_c001
Actelion Java MolfileCreator 2.0

  0  0  0  0  0  0              0 V3000
M  V30 BEGIN CTAB
M  V30 COUNTS 19 20 0 0 0
M  V30 BEGIN ATOM
M  V30 1 O 2.598 3.0 0.0 0
M  V30 2 C 3.4641 2.5 0.0 0
M  V30 3 C 3.4641 1.5 0.0 0
M  V30 4 C 4.3301 3.0 0.0 0
M  V30 5 C 2.598 1.0 0.0 0
M  V30 6 C 4.3301 1.0 0.0 0
M  V30 7 C 5.1961 2.4999 0.0 0
M  V30 8 C 4.3301 4.0 0.0 0
M  V30 9 N 1.732 1.5 0.0 0
M  V30 10 C 2.598 0.0 0.0 0
M  V30 11 C 4.3301 0.0 0.0 0
M  V30 12 C 6.0621 2.9999 0.0 0
M  V30 13 C 5.1961 4.4999 0.0 0
M  V30 14 C 3.4641 -0.4999 0.0 0
M  V30 15 C 1.732 -0.5 0.0 0
M  V30 16 C 6.0621 3.9999 0.0 0
M  V30 17 C 0.866 0.0 0.0 0
M  V30 18 O 0.866 1.0 0.0 0
M  V30 19 O 0.0 -0.5 0.0 0 CHG=-1
M  V30 END ATOM
M  V30 BEGIN BOND
M  V30 1 2 1 2
M  V30 2 1 2 3
M  V30 3 1 2 4
M  V30 4 2 3 5
M  V30 5 1 3 6
M  V30 6 2 4 7
M  V30 7 1 4 8
M  V30 8 1 5 9
M  V30 9 1 5 10
M  V30 10 2 6 11
M  V30 11 1 7 12
M  V30 12 2 8 13
M  V30 13 2 10 14
M  V30 14 1 10 15
M  V30 15 2 12 16
M  V30 16 1 15 17
M  V30 17 2 17 18
M  V30 18 1 17 19
M  V30 19 1 11 14
M  V30 20 1 13 16
M  V30 END BOND
M  V30 END CTAB
M  END
>  <Molecule Name>
_c001

>  <status>
-

>  <cas>
51579-82-9

>  <name>
AMFENAC

>  <ID>
1552

>  <Smiles>
Nc(c(CC([O-])=O)ccc1)c1C(c1ccccc1)=O

$$$$
_c001
Actelion Java MolfileCreator 2.0

  0  0  0  0  0  0              0 V3000
M  V30 BEGIN CTAB
M  V30 COUNTS 33 36 0 0 0
M  V30 BEGIN ATOM
M  V30 1 S 5.1961 -2.4318 0.0 0
M  V30 2 C 5.4549 -1.4659 0.0 0 CFG=2
M  V30 3 C 5.9032 -3.1389 0.0 0
M  V30 4 N 6.4208 -1.2071 0.0 0
M  V30 5 C 5.1961 -0.5 0.0 0 CFG=2
M  V30 6 C 6.8691 -2.8801 0.0 0
M  V30 7 C 7.128 -1.9142 0.0 0
M  V30 8 C 6.162 -0.2411 0.0 0
M  V30 9 N 4.3301 0.0 0.0 0
M  V30 10 C 7.5762 -3.5872 0.0 0
M  V30 11 C 8.0939 -1.6553 0.0 0
M  V30 12 O 6.662 0.6248 0.0 0
M  V30 13 C 3.4641 -0.5 0.0 0
M  V30 14 C 7.3174 -4.5531 0.0 0
M  V30 15 O 8.801 -2.3625 0.0 0
M  V30 16 O 8.3527 -0.6894 0.0 0 CHG=-1
M  V30 17 O 3.4641 -1.5 0.0 0
M  V30 18 C 2.598 0.0 0.0 0
M  V30 19 C 6.3515 -4.8119 0.0 0
M  V30 20 N 1.732 -0.5 0.0 0
M  V30 21 C 2.598 1.0 0.0 0
M  V30 22 S 5.5744 -4.1826 0.0 0
M  V30 23 C 5.9931 -5.7455 0.0 0
M  V30 24 O 1.732 -1.5 0.0 0
M  V30 25 N 3.407 1.5877 0.0 0
M  V30 26 C 1.789 1.5877 0.0 0
M  V30 27 C 4.7357 -4.7273 0.0 0
M  V30 28 N 4.9945 -5.6932 0.0 0
M  V30 29 C 6.5378 -6.5842 0.0 0
M  V30 30 C 0.866 -2.0 0.0 0
M  V30 31 C 3.098 2.5388 0.0 0
M  V30 32 S 2.098 2.5388 0.0 0
M  V30 33 N 3.6858 3.3478 0.0 0
M  V30 END ATOM
M  V30 BEGIN BOND
M  V30 1 1 2 1 CFG=1
M  V30 2 1 1 3
M  V30 3 1 2 4
M  V30 4 1 5 2
M  V30 5 1 3 6
M  V30 6 1 4 7
M  V30 7 1 4 8
M  V30 8 1 5 9 CFG=1
M  V30 9 1 6 10
M  V30 10 1 7 11
M  V30 11 2 8 12
M  V30 12 1 9 13
M  V30 13 2 10 14
M  V30 14 2 11 15
M  V30 15 1 11 16
M  V30 16 2 13 17
M  V30 17 1 13 18
M  V30 18 1 14 19
M  V30 19 2 18 20
M  V30 20 1 18 21
M  V30 21 1 19 22
M  V30 22 2 19 23
M  V30 23 1 20 24
M  V30 24 1 21 25
M  V30 25 2 21 26
M  V30 26 1 22 27
M  V30 27 1 23 28
M  V30 28 1 23 29
M  V30 29 1 24 30
M  V30 30 2 25 31
M  V30 31 1 26 32
M  V30 32 1 31 33
M  V30 33 1 5 8
M  V30 34 2 6 7
M  V30 35 2 27 28
M  V30 36 1 31 32
M  V30 END BOND
M  V30 BEGIN COLLECTION
M  V30 MDLV30/STERAC1 ATOMS=(2 2 5)
M  V30 END COLLECTION
M  V30 END CTAB
M  END
>  <Molecule Name>
_c001

>  <status>
-

>  <cas>
104145-95-1

>  <name>
CEFDITOREN

>  <ID>
1553

>  <Smiles>
Cc1c(/C=C\C(CS[C@H]2[C@H]3NC(/C(/c4csc(N)n4)=N\OC)=O)=C(C([O-])=O)N2C3=O)scn1

$$$$
_c001
Actelion Java MolfileCreator 2.0

  0  0  0  0  0  0              0 V3000
M  V30 BEGIN CTAB
M  V30 COUNTS 27 27 0 0 0
M  V30 BEGIN ATOM
M  V30 1 O 5.4648 -6.7964 0.0 0
M  V30 2 C 5.2569 -5.8183 0.0 0
M  V30 3 O 4.3059 -5.5093 0.0 0 CHG=-1
M  V30 4 C 6.0001 -5.1491 0.0 0
M  V30 5 C 5.7922 -4.171 0.0 0
M  V30 6 C 6.5353 -3.5019 0.0 0
M  V30 7 C 6.3274 -2.5237 0.0 0
M  V30 8 C 7.0705 -1.8546 0.0 0
M  V30 9 C 8.0216 -2.1636 0.0 0
M  V30 10 C 8.7647 -1.4945 0.0 0 CFG=1
M  V30 11 C 9.7429 -1.7024 0.0 0 CFG=1
M  V30 12 C 8.6602 -0.5 0.0 0 CFG=2
M  V30 13 O 10.1496 -2.6159 0.0 0
M  V30 14 C 10.2429 -0.8364 0.0 0
M  V30 15 C 9.5737 -0.0932 0.0 0 CFG=1
M  V30 16 C 7.7942 0.0 0.0 0
M  V30 17 O 9.7817 0.8848 0.0 0
M  V30 18 C 6.9282 -0.5 0.0 0
M  V30 19 C 6.0621 0.0 0.0 0
M  V30 20 O 6.0621 0.9999 0.0 0
M  V30 21 C 5.1961 -0.5 0.0 0
M  V30 22 C 4.3301 0.0 0.0 0
M  V30 23 C 3.4641 -0.5 0.0 0
M  V30 24 C 2.598 0.0 0.0 0
M  V30 25 C 1.732 -0.5 0.0 0
M  V30 26 C 0.866 0.0 0.0 0
M  V30 27 C 0.0 -0.5 0.0 0
M  V30 END ATOM
M  V30 BEGIN BOND
M  V30 1 2 1 2
M  V30 2 1 2 3
M  V30 3 1 2 4
M  V30 4 1 4 5
M  V30 5 1 5 6
M  V30 6 1 6 7
M  V30 7 2 7 8
M  V30 8 1 8 9
M  V30 9 1 10 9 CFG=3
M  V30 10 1 11 10
M  V30 11 1 12 10
M  V30 12 1 11 13 CFG=3
M  V30 13 1 11 14
M  V30 14 1 15 12
M  V30 15 1 12 16 CFG=1
M  V30 16 1 15 17 CFG=3
M  V30 17 1 16 18
M  V30 18 1 18 19
M  V30 19 2 19 20
M  V30 20 1 19 21
M  V30 21 1 21 22
M  V30 22 1 22 23
M  V30 23 1 23 24
M  V30 24 1 24 25
M  V30 25 1 25 26
M  V30 26 1 26 27
M  V30 27 1 14 15
M  V30 END BOND
M  V30 BEGIN COLLECTION
M  V30 MDLV30/STERAC1 ATOMS=(4 10 11 12 15)
M  V30 END COLLECTION
M  V30 END CTAB
M  END
>  <Molecule Name>
_c001

>  <status>
-

>  <cas>
120373-36-6

>  <name>
UNOPROSTONE

>  <ID>
1554

>  <Smiles>
CCCCCCCC(CC[C@H]([C@@H](C/C=C\CCCC([O-])=O)[C@H](C1)O)[C@@H]1O)=O

$$$$
_c001
Actelion Java MolfileCreator 2.0

  0  0  0  0  0  0              0 V3000
M  V30 BEGIN CTAB
M  V30 COUNTS 19 19 0 0 0
M  V30 BEGIN ATOM
M  V30 1 S 7.1448 1.2024 0.0 0
M  V30 2 C 6.1667 0.9945 0.0 0
M  V30 3 C 7.6448 0.3364 0.0 0
M  V30 4 C 6.0621 0.0 0.0 0
M  V30 5 C 5.4235 1.6636 0.0 0
M  V30 6 C 6.9757 -0.4067 0.0 0
M  V30 7 N 5.1961 -0.5 0.0 0
M  V30 8 O 4.4725 1.3546 0.0 0
M  V30 9 O 5.6314 2.6418 0.0 0
M  V30 10 C 7.1836 -1.3848 0.0 0
M  V30 11 C 5.1961 -1.4999 0.0 0
M  V30 12 C 4.8883 3.3109 0.0 0
M  V30 13 O 6.0621 -1.9999 0.0 0
M  V30 14 C 4.3301 -1.9999 0.0 0 CFG=1
M  V30 15 N 4.3301 -2.9999 0.0 0
M  V30 16 C 3.4641 -1.4999 0.0 0
M  V30 17 C 3.4641 -3.4999 0.0 0
M  V30 18 C 3.4641 -4.4999 0.0 0
M  V30 19 C 2.598 -4.9999 0.0 0
M  V30 END ATOM
M  V30 BEGIN BOND
M  V30 1 1 1 2
M  V30 2 1 1 3
M  V30 3 2 2 4
M  V30 4 1 2 5
M  V30 5 2 3 6
M  V30 6 1 4 7
M  V30 7 2 5 8
M  V30 8 1 5 9
M  V30 9 1 6 10
M  V30 10 1 7 11
M  V30 11 1 9 12
M  V30 12 2 11 13
M  V30 13 1 14 11
M  V30 14 1 14 15 CFG=1
M  V30 15 1 14 16
M  V30 16 1 15 17
M  V30 17 1 17 18
M  V30 18 1 18 19
M  V30 19 1 4 6
M  V30 END BOND
M  V30 BEGIN COLLECTION
M  V30 MDLV30/STERAC1 ATOMS=(1 14)
M  V30 END COLLECTION
M  V30 END CTAB
M  END
>  <Molecule Name>
_c001

>  <status>
-

>  <cas>
23964-58-1

>  <name>
ARTICAINE

>  <ID>
1555

>  <Smiles>
CCCNC(C)C(Nc1c(C(OC)=O)scc1C)=O

$$$$
_c001
Actelion Java MolfileCreator 2.0

  0  0  0  0  0  0              0 V3000
M  V30 BEGIN CTAB
M  V30 COUNTS 32 34 0 0 0
M  V30 BEGIN ATOM
M  V30 1 O 4.4461 -2.049 0.0 0
M  V30 2 C 5.1961 -0.75 0.0 0 CFG=1
M  V30 3 C 3.8971 0.0 0.0 0
M  V30 4 C 6.4951 0.0 0.0 0
M  V30 5 C 5.9461 -2.049 0.0 0
M  V30 6 C 2.598 -0.75 0.0 0
M  V30 7 O 5.7451 1.299 0.0 0
M  V30 8 C 7.7942 0.75 0.0 0
M  V30 9 C 7.2451 -1.299 0.0 0
M  V30 10 C 1.299 0.0 0.0 0 CFG=1
M  V30 11 C 1.299 1.5 0.0 0 CFG=1
M  V30 12 C 0.0 -0.75 0.0 0
M  V30 13 C 2.5125 2.3816 0.0 0 CFG=1
M  V30 14 C 0.0855 2.3816 0.0 0
M  V30 15 C 2.049 3.8082 0.0 0 CFG=2
M  V30 16 C 3.9797 2.0698 0.0 0
M  V30 17 C 2.8244 0.9144 0.0 0
M  V30 18 C 0.549 3.8082 0.0 0
M  V30 19 C 3.0527 4.9229 0.0 0
M  V30 20 C 4.9834 3.1845 0.0 0
M  V30 21 C 2.5892 6.3495 0.0 0
M  V30 22 C 4.5199 4.6111 0.0 0
M  V30 23 C 3.5929 7.4642 0.0 0
M  V30 24 C 3.1293 8.8908 0.0 0
M  V30 25 C 1.6621 9.2027 0.0 0
M  V30 26 C 4.133 10.0055 0.0 0
M  V30 27 C 0.6584 8.088 0.0 0
M  V30 28 C 1.1986 10.6293 0.0 0 CFG=2
M  V30 29 C 3.6695 11.4321 0.0 0 CFG=1
M  V30 30 O -0.2685 10.9412 0.0 0
M  V30 31 C 2.2023 11.744 0.0 0
M  V30 32 O 4.6732 12.5469 0.0 0
M  V30 END ATOM
M  V30 BEGIN BOND
M  V30 1 1 2 1 CFG=1
M  V30 2 1 2 3
M  V30 3 1 2 4
M  V30 4 1 2 5
M  V30 5 2 3 6
M  V30 6 1 4 7
M  V30 7 1 4 8
M  V30 8 1 4 9
M  V30 9 1 10 6
M  V30 10 1 11 10
M  V30 11 1 10 12 CFG=3
M  V30 12 1 13 11
M  V30 13 1 11 14 CFG=3
M  V30 14 1 15 13
M  V30 15 1 13 16
M  V30 16 1 13 17 CFG=3
M  V30 17 1 14 18
M  V30 18 1 15 19
M  V30 19 1 16 20
M  V30 20 2 19 21
M  V30 21 1 19 22
M  V30 22 1 21 23
M  V30 23 2 23 24
M  V30 24 1 24 25
M  V30 25 1 24 26
M  V30 26 2 25 27
M  V30 27 1 28 25
M  V30 28 1 29 26
M  V30 29 1 28 30 CFG=3
M  V30 30 1 28 31
M  V30 31 1 29 32 CFG=1
M  V30 32 1 15 18 CFG=3
M  V30 33 1 20 22
M  V30 34 1 29 31
M  V30 END BOND
M  V30 BEGIN COLLECTION
M  V30 MDLV30/STERAC1 ATOMS=(7 2 10 11 13 15 28 29)
M  V30 END COLLECTION
M  V30 END CTAB
M  END
>  <Molecule Name>
_c001

>  <status>
-

>  <cas>
100496-04-6

>  <name>
M DOXERCALCIFEROL

>  <ID>
1556

>  <Smiles>
C[C@H]([C@H](CC1)[C@](C)(CCC2)[C@H]1/C2=C/C=C(/C[C@@H](C[C@H]1O)O)\C1=C)/C=C/[C@@](C)(C(C)(C)O)O

$$$$
_c001
Actelion Java MolfileCreator 2.0

  0  0  0  0  0  0              0 V3000
M  V30 BEGIN CTAB
M  V30 COUNTS 33 37 0 0 0
M  V30 BEGIN ATOM
M  V30 1 O 4.1807 3.8005 0.0 0
M  V30 2 C 3.6807 2.9344 0.0 0
M  V30 3 O 2.6807 2.9344 0.0 0 CHG=-1
M  V30 4 C 4.1807 2.0684 0.0 0
M  V30 5 C 3.6807 1.2024 0.0 0
M  V30 6 C 5.1807 2.0684 0.0 0
M  V30 7 N 2.7026 0.9945 0.0 0
M  V30 8 C 4.1807 0.3364 0.0 0
M  V30 9 C 5.6807 1.2024 0.0 0
M  V30 10 C 2.598 0.0 0.0 0
M  V30 11 C 1.9594 1.6636 0.0 0
M  V30 12 N 3.5116 -0.4067 0.0 0
M  V30 13 C 5.1807 0.3364 0.0 0
M  V30 14 O 1.732 -0.5 0.0 0
M  V30 15 C 1.0084 1.3546 0.0 0
M  V30 16 C 1.732 -1.5 0.0 0
M  V30 17 C 0.2652 2.0237 0.0 0
M  V30 18 C 0.8004 0.3764 0.0 0
M  V30 19 C 0.866 -2.0 0.0 0
M  V30 20 C -0.6857 1.7147 0.0 0
M  V30 21 C -0.1505 0.0674 0.0 0
M  V30 22 C -0.8937 0.7366 0.0 0
M  V30 23 C -1.8447 0.4275 0.0 0
M  V30 24 C -2.5879 1.0967 0.0 0
M  V30 25 C -2.0526 -0.5505 0.0 0
M  V30 26 C -2.3799 2.0748 0.0 0
M  V30 27 C -3.5389 0.7876 0.0 0
M  V30 28 C -3.0037 -0.8595 0.0 0
M  V30 29 N -1.4664 2.4815 0.0 0
M  V30 30 N -3.0491 2.818 0.0 0
M  V30 31 C -3.7468 -0.1904 0.0 0
M  V30 32 N -1.5709 3.4761 0.0 0
M  V30 33 N -2.5491 3.684 0.0 0
M  V30 END ATOM
M  V30 BEGIN BOND
M  V30 1 2 1 2
M  V30 2 1 2 3
M  V30 3 1 2 4
M  V30 4 2 4 5
M  V30 5 1 4 6
M  V30 6 1 5 7
M  V30 7 1 5 8
M  V30 8 2 6 9
M  V30 9 1 7 10
M  V30 10 1 7 11
M  V30 11 1 8 12
M  V30 12 2 8 13
M  V30 13 1 10 14
M  V30 14 1 11 15
M  V30 15 1 14 16
M  V30 16 2 15 17
M  V30 17 1 15 18
M  V30 18 1 16 19
M  V30 19 1 17 20
M  V30 20 2 18 21
M  V30 21 2 20 22
M  V30 22 1 22 23
M  V30 23 2 23 24
M  V30 24 1 23 25
M  V30 25 1 24 26
M  V30 26 1 24 27
M  V30 27 2 25 28
M  V30 28 2 26 29
M  V30 29 1 26 30
M  V30 30 2 27 31
M  V30 31 1 29 32
M  V30 32 1 30 33
M  V30 33 1 9 13
M  V30 34 2 10 12
M  V30 35 1 21 22
M  V30 36 1 28 31
M  V30 37 2 32 33
M  V30 END BOND
M  V30 END CTAB
M  END
>  <Molecule Name>
_c001

>  <status>
-

>  <cas>
139481-59-7

>  <name>
CANDESARTAN

>  <ID>
1557

>  <Smiles>
CCOc1nc2cccc(C([O-])=O)c2n1Cc(cc1)ccc1-c(cccc1)c1-c1nnn[nH]1

$$$$
_c001
Actelion Java MolfileCreator 2.0

  0  0  0  0  0  0              0 V3000
M  V30 BEGIN CTAB
M  V30 COUNTS 12 11 0 0 0
M  V30 BEGIN ATOM
M  V30 1 F 7.8893 -0.7591 0.0 0
M  V30 2 C 6.5744 0.0 0.0 0
M  V30 3 F 6.9298 1.385 0.0 0
M  V30 4 C 5.2595 -0.7591 0.0 0 CFG=2
M  V30 5 N 5.2595 -2.2774 0.0 0
M  V30 6 C 5.2595 0.7591 0.0 0
M  V30 7 C 3.9446 0.0 0.0 0
M  V30 8 O 3.9446 1.5183 0.0 0
M  V30 9 O 6.3967 1.5849 0.0 0 CHG=-1
M  V30 10 C 2.6297 -0.7591 0.0 0
M  V30 11 C 1.3148 0.0 0.0 0
M  V30 12 N 0.0 -0.7591 0.0 0
M  V30 END ATOM
M  V30 BEGIN BOND
M  V30 1 1 1 2
M  V30 2 1 2 3
M  V30 3 1 4 2
M  V30 4 1 4 5
M  V30 5 1 4 6 CFG=3
M  V30 6 1 4 7
M  V30 7 2 6 8
M  V30 8 1 6 9
M  V30 9 1 7 10
M  V30 10 1 10 11
M  V30 11 1 11 12
M  V30 END BOND
M  V30 BEGIN COLLECTION
M  V30 MDLV30/STERAC1 ATOMS=(1 4)
M  V30 END COLLECTION
M  V30 END CTAB
M  END
>  <Molecule Name>
_c001

>  <status>
DISCONTINUED

>  <cas>
70052-12-9

>  <name>
EFLORNITHINE

>  <ID>
1558

>  <Smiles>
NCCCC(C(F)F)(C([O-])=O)N

$$$$
_c001
Actelion Java MolfileCreator 2.0

  0  0  0  0  0  0              0 V3000
M  V30 BEGIN CTAB
M  V30 COUNTS 29 32 0 0 0
M  V30 BEGIN ATOM
M  V30 1 Cl 7.7942 -0.75 0.0 0
M  V30 2 C 6.4951 0.0 0.0 0
M  V30 3 C 5.1961 -0.75 0.0 0
M  V30 4 N 3.8971 0.0 0.0 0
M  V30 5 C 3.8971 1.5 0.0 0
M  V30 6 C 2.598 -0.75 0.0 0
M  V30 7 O 2.598 2.25 0.0 0
M  V30 8 O 5.1961 2.25 0.0 0
M  V30 9 C 1.299 0.0 0.0 0
M  V30 10 C 5.1961 3.75 0.0 0
M  V30 11 Cl 0.0 -0.75 0.0 0
M  V30 12 C 3.8971 4.5 0.0 0
M  V30 13 C 6.4951 4.4999 0.0 0
M  V30 14 C 3.8971 6.0 0.0 0
M  V30 15 C 6.4951 5.9999 0.0 0
M  V30 16 C 5.1961 6.75 0.0 0
M  V30 17 C 2.598 6.75 0.0 0
M  V30 18 C 5.1961 8.25 0.0 0 CFG=2
M  V30 19 C 2.598 8.25 0.0 0
M  V30 20 C 3.8971 9.0 0.0 0 CFG=1
M  V30 21 C 6.4951 9.0 0.0 0
M  V30 22 C 3.8971 10.5 0.0 0 CFG=1
M  V30 23 C 6.4951 10.5 0.0 0
M  V30 24 C 5.1961 11.25 0.0 0 CFG=2
M  V30 25 C 2.7823 11.5036 0.0 0
M  V30 26 C 4.8842 12.7172 0.0 0 CFG=2
M  V30 27 C 6.4096 12.1316 0.0 0
M  V30 28 C 3.3925 12.874 0.0 0
M  V30 29 O 5.8879 13.8319 0.0 0
M  V30 END ATOM
M  V30 BEGIN BOND
M  V30 1 1 1 2
M  V30 2 1 2 3
M  V30 3 1 3 4
M  V30 4 1 4 5
M  V30 5 1 4 6
M  V30 6 2 5 7
M  V30 7 1 5 8
M  V30 8 1 6 9
M  V30 9 1 8 10
M  V30 10 1 9 11
M  V30 11 2 10 12
M  V30 12 1 10 13
M  V30 13 1 12 14
M  V30 14 2 13 15
M  V30 15 2 14 16
M  V30 16 1 14 17
M  V30 17 1 18 16
M  V30 18 1 17 19
M  V30 19 1 20 18
M  V30 20 1 18 21 CFG=3
M  V30 21 1 22 20
M  V30 22 1 21 23
M  V30 23 1 24 22
M  V30 24 1 22 25 CFG=3
M  V30 25 1 26 24
M  V30 26 1 24 27 CFG=3
M  V30 27 1 25 28
M  V30 28 1 26 29 CFG=3
M  V30 29 1 15 16
M  V30 30 1 20 19 CFG=1
M  V30 31 1 23 24
M  V30 32 1 26 28
M  V30 END BOND
M  V30 BEGIN COLLECTION
M  V30 MDLV30/STERAC1 ATOMS=(5 18 20 22 24 26)
M  V30 END COLLECTION
M  V30 END CTAB
M  END
>  <Molecule Name>
_c001

>  <status>
-

>  <cas>
4891-15-0

>  <name>
ESTRAMUSTINE

>  <ID>
1559

>  <Smiles>
C[C@](CC1)([C@@H](CC2)[C@H](CC3)[C@H]1c(cc1)c3cc1OC(N(CCCl)CCCl)=O)[C@H]2O

$$$$
_c001
Actelion Java MolfileCreator 2.0

  0  0  0  0  0  0              0 V3000
M  V30 BEGIN CTAB
M  V30 COUNTS 24 25 0 0 0
M  V30 BEGIN ATOM
M  V30 1 O 5.1961 -1.4999 0.0 0
M  V30 2 C 5.1961 -0.5 0.0 0
M  V30 3 O 4.3301 0.0 0.0 0
M  V30 4 C 6.0621 0.0 0.0 0
M  V30 5 C 3.4641 -0.5 0.0 0 CFG=2
M  V30 6 C 6.9282 -0.5 0.0 0
M  V30 7 C 3.4641 0.5 0.0 0
M  V30 8 C 2.598 0.0 0.0 0 CFG=1
M  V30 9 C 3.4641 -1.5 0.0 0
M  V30 10 C 4.3301 1.0 0.0 0
M  V30 11 C 2.7646 1.0274 0.0 0
M  V30 12 C 1.732 -0.5 0.0 0
M  V30 13 C 2.4081 1.1535 0.0 0
M  V30 14 C 2.598 -2.0 0.0 0
M  V30 15 C 4.3301 2.0 0.0 0
M  V30 16 C 2.598 1.9999 0.0 0
M  V30 17 N 0.866 0.0 0.0 0
M  V30 18 C 1.732 -1.5 0.0 0
M  V30 19 C 2.598 -2.9999 0.0 0
M  V30 20 C 3.4641 2.5 0.0 0
M  V30 21 C 0.0 -0.5 0.0 0
M  V30 22 C 0.866 -2.0 0.0 0
M  V30 23 C 1.732 -3.5 0.0 0
M  V30 24 C 0.866 -2.9999 0.0 0
M  V30 END ATOM
M  V30 BEGIN BOND
M  V30 1 2 1 2
M  V30 2 1 2 3
M  V30 3 1 2 4
M  V30 4 1 5 3
M  V30 5 1 4 6
M  V30 6 1 5 7 CFG=3
M  V30 7 1 8 5
M  V30 8 1 5 9
M  V30 9 2 7 10
M  V30 10 1 7 11
M  V30 11 1 8 12
M  V30 12 1 8 13 CFG=1
M  V30 13 1 9 14
M  V30 14 1 10 15
M  V30 15 2 11 16
M  V30 16 1 12 17
M  V30 17 2 14 18
M  V30 18 1 14 19
M  V30 19 2 15 20
M  V30 20 1 17 21
M  V30 21 1 18 22
M  V30 22 2 19 23
M  V30 23 2 22 24
M  V30 24 1 16 20
M  V30 25 1 23 24
M  V30 END BOND
M  V30 BEGIN COLLECTION
M  V30 MDLV30/STERAC1 ATOMS=(2 5 8)
M  V30 END COLLECTION
M  V30 END CTAB
M  END
>  <Molecule Name>
_c001

>  <status>
-

>  <cas>
66796-40-5

>  <name>
NORPROPOXYPHENE

>  <ID>
1560

>  <Smiles>
CCC(O[C@@](Cc1ccccc1)([C@H](C)CNC)c1ccccc1)=O

$$$$
_c001
Actelion Java MolfileCreator 2.0

  0  0  0  0  0  0              0 V3000
M  V30 BEGIN CTAB
M  V30 COUNTS 20 20 0 0 0
M  V30 BEGIN ATOM
M  V30 1 O 6.9282 -0.5 0.0 0
M  V30 2 C 6.0621 0.0 0.0 0
M  V30 3 O 6.0621 0.9999 0.0 0 CHG=-1
M  V30 4 C 5.1961 -0.5 0.0 0
M  V30 5 C 4.3301 0.0 0.0 0
M  V30 6 C 5.1961 -1.4999 0.0 0
M  V30 7 C 3.4641 -0.5 0.0 0 CFG=1
M  V30 8 C 4.3301 -1.9999 0.0 0 CFG=1
M  V30 9 O 2.598 0.0 0.0 0
M  V30 10 C 3.4641 -1.4999 0.0 0 CFG=1
M  V30 11 N 4.3301 -3.0 0.0 0
M  V30 12 C 2.598 0.9999 0.0 0
M  V30 13 N 2.598 -1.9999 0.0 0
M  V30 14 C 3.4641 1.4999 0.0 0
M  V30 15 C 1.732 1.4999 0.0 0
M  V30 16 C 1.732 -1.4999 0.0 0
M  V30 17 C 4.3301 1.0 0.0 0
M  V30 18 C 1.732 2.4999 0.0 0
M  V30 19 O 1.732 -0.5 0.0 0
M  V30 20 C 0.866 -1.9999 0.0 0
M  V30 END ATOM
M  V30 BEGIN BOND
M  V30 1 2 1 2
M  V30 2 1 2 3
M  V30 3 1 2 4
M  V30 4 2 4 5
M  V30 5 1 4 6
M  V30 6 1 7 5
M  V30 7 1 8 6
M  V30 8 1 7 9 CFG=3
M  V30 9 1 10 7
M  V30 10 1 8 11 CFG=3
M  V30 11 1 9 12
M  V30 12 1 10 13 CFG=1
M  V30 13 1 12 14
M  V30 14 1 12 15
M  V30 15 1 13 16
M  V30 16 1 14 17
M  V30 17 1 15 18
M  V30 18 2 16 19
M  V30 19 1 16 20
M  V30 20 1 8 10
M  V30 END BOND
M  V30 BEGIN COLLECTION
M  V30 MDLV30/STERAC1 ATOMS=(3 7 8 10)
M  V30 END COLLECTION
M  V30 END CTAB
M  END
>  <Molecule Name>
_c001

>  <status>
-

>  <cas>
187227-45-8

>  <name>
M OSELTAMIVIR

>  <ID>
1561

>  <Smiles>
CCC(CC)O[C@@H]([C@@H]([C@H](C1)N)NC(C)=O)C=C1C([O-])=O

$$$$
_c001
Actelion Java MolfileCreator 2.0

  0  0  0  0  0  0              0 V3000
M  V30 BEGIN CTAB
M  V30 COUNTS 40 45 0 0 0
M  V30 BEGIN ATOM
M  V30 1 O 1.732 -1.4999 0.0 0
M  V30 2 C 1.732 -0.5 0.0 0
M  V30 3 O 2.598 0.0 0.0 0
M  V30 4 C 0.866 0.0 0.0 0
M  V30 5 C 3.4641 -0.5 0.0 0 CFG=2
M  V30 6 C 0.0 -0.5 0.0 0
M  V30 7 C 3.5686 -1.4945 0.0 0 CFG=2
M  V30 8 C 4.3776 -0.0932 0.0 0 CFG=1
M  V30 9 C 4.5467 -1.7024 0.0 0 CFG=1
M  V30 10 C 2.8994 -2.2376 0.0 0
M  V30 11 C 2.6175 -1.1855 0.0 0
M  V30 12 N 4.5855 0.8848 0.0 0 CHG=1
M  V30 13 C 5.0467 -0.8364 0.0 0
M  V30 14 C 4.8557 -2.6534 0.0 0 CFG=1
M  V30 15 C 3.2085 -3.1887 0.0 0
M  V30 16 C 4.7934 1.863 0.0 0
M  V30 17 C 3.6345 0.5758 0.0 0
M  V30 18 C 5.3287 0.2157 0.0 0
M  V30 19 C 4.1866 -3.3966 0.0 0 CFG=2
M  V30 20 C 5.8339 -2.8614 0.0 0
M  V30 21 C 4.0503 2.5321 0.0 0
M  V30 22 C 2.8913 1.2449 0.0 0
M  V30 23 C 6.2797 0.5247 0.0 0
M  V30 24 C 4.4956 -4.3476 0.0 0 CFG=2
M  V30 25 C 6.1429 -3.8124 0.0 0
M  V30 26 C 3.0992 2.2231 0.0 0
M  V30 27 C 7.0229 -0.1443 0.0 0
M  V30 28 C 5.4738 -4.5556 0.0 0 CFG=1
M  V30 29 C 3.8265 -5.0908 0.0 0
M  V30 30 C 3.5175 -4.1397 0.0 0
M  V30 31 C 5.7828 -5.5066 0.0 0
M  V30 32 C 4.1355 -6.0418 0.0 0 CFG=1
M  V30 33 C 5.1137 -6.2498 0.0 0 CFG=1
M  V30 34 N 3.4664 -6.785 0.0 0
M  V30 35 O 5.4227 -7.2008 0.0 0
M  V30 36 C 2.4882 -6.5771 0.0 0
M  V30 37 C 3.7754 -7.736 0.0 0
M  V30 38 C 1.8191 -7.3202 0.0 0
M  V30 39 C 3.1063 -8.4792 0.0 0
M  V30 40 C 2.1281 -8.2713 0.0 0
M  V30 END ATOM
M  V30 BEGIN BOND
M  V30 1 2 1 2
M  V30 2 1 2 3
M  V30 3 1 2 4
M  V30 4 1 5 3 CFG=1
M  V30 5 1 4 6
M  V30 6 1 7 5
M  V30 7 1 8 5
M  V30 8 1 9 7
M  V30 9 1 7 10
M  V30 10 1 7 11 CFG=1
M  V30 11 1 8 12 CFG=1
M  V30 12 1 8 13
M  V30 13 1 14 9
M  V30 14 1 10 15
M  V30 15 1 12 16
M  V30 16 1 12 17
M  V30 17 1 12 18
M  V30 18 1 19 14
M  V30 19 1 14 20 CFG=3
M  V30 20 1 16 21
M  V30 21 1 17 22
M  V30 22 1 18 23
M  V30 23 1 24 19
M  V30 24 1 20 25
M  V30 25 1 21 26
M  V30 26 2 23 27
M  V30 27 1 28 24
M  V30 28 1 24 29
M  V30 29 1 24 30 CFG=1
M  V30 30 1 28 31 CFG=1
M  V30 31 1 32 29
M  V30 32 1 33 31
M  V30 33 1 32 34 CFG=1
M  V30 34 1 33 35 CFG=3
M  V30 35 1 34 36
M  V30 36 1 34 37
M  V30 37 1 36 38
M  V30 38 1 37 39
M  V30 39 1 38 40
M  V30 40 1 9 13 CFG=1
M  V30 41 1 19 15 CFG=1
M  V30 42 1 22 26
M  V30 43 1 25 28
M  V30 44 1 32 33
M  V30 45 1 39 40
M  V30 END BOND
M  V30 BEGIN COLLECTION
M  V30 MDLV30/STERAC1 ATOMS=(10 5 7 8 9 14 19 24 28 32 33)
M  V30 END COLLECTION
M  V30 END CTAB
M  END
>  <Molecule Name>
_c001

>  <status>
-

>  <cas>
736123-17-4

>  <name>
M RAPACURONIUM

>  <ID>
1562

>  <Smiles>
CCC(O[C@@H]([C@H](C1)[N+]2(CC=C)CCCCC2)[C@@](C)(CC2)[C@@H]1[C@H](CC1)[C@H]2[C@@](C)(C[C@@H]2N3CCCCC3)[C@@H]1C[C@@H]2O)=O

$$$$
_c001
Actelion Java MolfileCreator 2.0

  0  0  0  0  0  0              0 V3000
M  V30 BEGIN CTAB
M  V30 COUNTS 32 35 0 0 0
M  V30 BEGIN ATOM
M  V30 1 S 7.7942 2.25 0.0 0
M  V30 2 O 8.5442 3.549 0.0 0
M  V30 3 O 7.0442 3.549 0.0 0
M  V30 4 N 9.0932 1.5 0.0 0
M  V30 5 C 6.4951 1.5 0.0 0
M  V30 6 C 9.0932 0.0 0.0 0
M  V30 7 C 10.3923 2.25 0.0 0
M  V30 8 C 5.1961 2.25 0.0 0
M  V30 9 C 6.4951 0.0 0.0 0
M  V30 10 C 10.3923 -0.75 0.0 0
M  V30 11 C 11.6913 1.5 0.0 0
M  V30 12 C 3.8971 1.5 0.0 0
M  V30 13 C 5.1961 -0.75 0.0 0
M  V30 14 N 11.6913 0.0 0.0 0
M  V30 15 C 2.598 2.25 0.0 0
M  V30 16 C 3.8971 0.0 0.0 0
M  V30 17 N 1.299 1.5 0.0 0
M  V30 18 N 2.598 3.75 0.0 0
M  V30 19 O 2.598 -0.75 0.0 0
M  V30 20 C 0.0 2.25 0.0 0
M  V30 21 C 1.299 4.5 0.0 0
M  V30 22 C 1.299 0.0 0.0 0
M  V30 23 C 0.0 3.75 0.0 0
M  V30 24 C -1.4265 1.7864 0.0 0
M  V30 25 O 1.299 6.0 0.0 0
M  V30 26 C 0.0 -0.75 0.0 0
M  V30 27 N -1.4265 4.2135 0.0 0
M  V30 28 N -2.3082 3.0 0.0 0
M  V30 29 C -1.8901 0.3598 0.0 0
M  V30 30 C -1.8901 5.6401 0.0 0
M  V30 31 C -3.3573 0.048 0.0 0
M  V30 32 C -3.8208 -1.3785 0.0 0
M  V30 END ATOM
M  V30 BEGIN BOND
M  V30 1 2 1 2
M  V30 2 2 1 3
M  V30 3 1 1 4
M  V30 4 1 1 5
M  V30 5 1 4 6
M  V30 6 1 4 7
M  V30 7 2 5 8
M  V30 8 1 5 9
M  V30 9 1 6 10
M  V30 10 1 7 11
M  V30 11 1 8 12
M  V30 12 2 9 13
M  V30 13 1 10 14
M  V30 14 1 12 15
M  V30 15 2 12 16
M  V30 16 2 15 17
M  V30 17 1 15 18
M  V30 18 1 16 19
M  V30 19 1 17 20
M  V30 20 1 18 21
M  V30 21 1 19 22
M  V30 22 2 20 23
M  V30 23 1 20 24
M  V30 24 2 21 25
M  V30 25 1 22 26
M  V30 26 1 23 27
M  V30 27 2 24 28
M  V30 28 1 24 29
M  V30 29 1 27 30
M  V30 30 1 29 31
M  V30 31 1 31 32
M  V30 32 1 11 14
M  V30 33 1 13 16
M  V30 34 1 21 23
M  V30 35 1 27 28
M  V30 END BOND
M  V30 END CTAB
M  END
>  <Molecule Name>
_c001

>  <status>
-

>  <cas>
139755-82-1

>  <name>
M SILDENAFIL

>  <ID>
1563

>  <Smiles>
CCCc1nn(C)c2c1N=C(c(cc(cc1)S(N3CCNCC3)(=O)=O)c1OCC)NC2=O

$$$$
_c001
Actelion Java MolfileCreator 2.0

  0  0  0  0  0  0              0 V3000
M  V30 BEGIN CTAB
M  V30 COUNTS 23 24 0 0 0
M  V30 BEGIN ATOM
M  V30 1 Cl 4.3301 0.9999 0.0 0
M  V30 2 C 4.3301 0.0 0.0 0
M  V30 3 C 3.4641 -0.5 0.0 0
M  V30 4 C 5.1961 -0.5 0.0 0
M  V30 5 C 3.4641 -1.5 0.0 0
M  V30 6 C 2.598 0.0 0.0 0 CFG=2
M  V30 7 C 5.1961 -1.5 0.0 0
M  V30 8 C 4.3301 -2.0 0.0 0
M  V30 9 N 2.598 1.0 0.0 0
M  V30 10 C 1.732 -0.5 0.0 0
M  V30 11 C 3.4641 1.5 0.0 0
M  V30 12 C 1.732 1.4999 0.0 0
M  V30 13 O 1.732 -1.5 0.0 0
M  V30 14 O 0.866 0.0 0.0 0
M  V30 15 C 3.4641 2.5 0.0 0
M  V30 16 C 1.732 2.5 0.0 0
M  V30 17 C 0.0 -0.5 0.0 0
M  V30 18 C 4.3301 3.0 0.0 0
M  V30 19 C 2.598 3.0 0.0 0 CFG=2
M  V30 20 C 5.1961 2.5 0.0 0
M  V30 21 S 2.598 4.0 0.0 0
M  V30 22 O 5.1961 1.5 0.0 0
M  V30 23 O 6.0621 3.0 0.0 0 CHG=-1
M  V30 END ATOM
M  V30 BEGIN BOND
M  V30 1 1 1 2
M  V30 2 2 2 3
M  V30 3 1 2 4
M  V30 4 1 3 5
M  V30 5 1 6 3
M  V30 6 2 4 7
M  V30 7 2 5 8
M  V30 8 1 6 9 CFG=1
M  V30 9 1 6 10
M  V30 10 1 9 11
M  V30 11 1 9 12
M  V30 12 2 10 13
M  V30 13 1 10 14
M  V30 14 1 11 15
M  V30 15 1 12 16
M  V30 16 1 14 17
M  V30 17 2 15 18
M  V30 18 1 19 15
M  V30 19 1 18 20
M  V30 20 1 19 21 CFG=3
M  V30 21 2 20 22
M  V30 22 1 20 23
M  V30 23 1 7 8
M  V30 24 1 16 19
M  V30 END BOND
M  V30 BEGIN COLLECTION
M  V30 MDLV30/STERAC1 ATOMS=(2 6 19)
M  V30 END COLLECTION
M  V30 END CTAB
M  END
>  <Molecule Name>
_c001

>  <status>
-

>  <cas>
767612-34-0

>  <name>
M CLOPIDOGREL

>  <ID>
1564

>  <Smiles>
COC([C@H](c(cccc1)c1Cl)N(CC[C@@H]1S)C/C1=C\C([O-])=O)=O

$$$$
_c001
Actelion Java MolfileCreator 2.0

  0  0  0  0  0  0              0 V3000
M  V30 BEGIN CTAB
M  V30 COUNTS 23 24 0 0 0
M  V30 BEGIN ATOM
M  V30 1 Cl 4.3301 0.9999 0.0 0
M  V30 2 C 4.3301 0.0 0.0 0
M  V30 3 C 3.4641 -0.5 0.0 0
M  V30 4 C 5.1961 -0.5 0.0 0
M  V30 5 C 3.4641 -1.5 0.0 0
M  V30 6 C 2.598 0.0 0.0 0 CFG=1
M  V30 7 C 5.1961 -1.5 0.0 0
M  V30 8 C 4.3301 -2.0 0.0 0
M  V30 9 N 2.598 1.0 0.0 0
M  V30 10 C 1.732 -0.5 0.0 0
M  V30 11 C 3.4641 1.5 0.0 0
M  V30 12 C 1.732 1.4999 0.0 0
M  V30 13 O 1.732 -1.5 0.0 0
M  V30 14 O 0.866 0.0 0.0 0
M  V30 15 C 3.4641 2.5 0.0 0
M  V30 16 C 1.732 2.5 0.0 0
M  V30 17 C 0.0 -0.5 0.0 0
M  V30 18 C 4.3301 3.0 0.0 0
M  V30 19 C 2.598 3.0 0.0 0 CFG=2
M  V30 20 C 5.1961 2.5 0.0 0
M  V30 21 S 2.598 4.0 0.0 0
M  V30 22 O 5.1961 1.5 0.0 0
M  V30 23 O 6.0621 3.0 0.0 0 CHG=-1
M  V30 END ATOM
M  V30 BEGIN BOND
M  V30 1 1 1 2
M  V30 2 2 2 3
M  V30 3 1 2 4
M  V30 4 1 3 5
M  V30 5 1 6 3
M  V30 6 2 4 7
M  V30 7 2 5 8
M  V30 8 1 6 9 CFG=3
M  V30 9 1 6 10
M  V30 10 1 9 11
M  V30 11 1 9 12
M  V30 12 2 10 13
M  V30 13 1 10 14
M  V30 14 1 11 15
M  V30 15 1 12 16
M  V30 16 1 14 17
M  V30 17 2 15 18
M  V30 18 1 19 15
M  V30 19 1 18 20
M  V30 20 1 19 21 CFG=3
M  V30 21 2 20 22
M  V30 22 1 20 23
M  V30 23 1 7 8
M  V30 24 1 16 19
M  V30 END BOND
M  V30 BEGIN COLLECTION
M  V30 MDLV30/STERAC1 ATOMS=(2 6 19)
M  V30 END COLLECTION
M  V30 END CTAB
M  END
>  <Molecule Name>
_c001

>  <status>
-

>  <cas>
767612-34-0

>  <name>
M CLOPIDOGREL

>  <ID>
1565

>  <Smiles>
COC([C@@H](c(cccc1)c1Cl)N(CC[C@@H]1S)C/C1=C\C([O-])=O)=O

$$$$
_c001
Actelion Java MolfileCreator 2.0

  0  0  0  0  0  0              0 V3000
M  V30 BEGIN CTAB
M  V30 COUNTS 39 43 0 0 0
M  V30 BEGIN ATOM
M  V30 1 S 7.7352 -0.9659 0.0 0
M  V30 2 C 7.0281 -0.2588 0.0 0 CFG=2
M  V30 3 C 8.7011 -0.7071 0.0 0
M  V30 4 N 7.2869 0.7071 0.0 0
M  V30 5 C 6.0621 0.0 0.0 0 CFG=2
M  V30 6 C 8.9599 0.2588 0.0 0
M  V30 7 C 8.2528 0.9659 0.0 0
M  V30 8 C 6.3209 0.9659 0.0 0
M  V30 9 N 5.1961 -0.5 0.0 0
M  V30 10 S 9.9258 0.5176 0.0 0
M  V30 11 C 8.5116 1.9318 0.0 0
M  V30 12 O 5.8209 1.8319 0.0 0
M  V30 13 C 4.3301 0.0 0.0 0
M  V30 14 C 10.6329 -0.1894 0.0 0
M  V30 15 O 9.4775 2.1906 0.0 0
M  V30 16 O 7.8045 2.6389 0.0 0 CHG=-1
M  V30 17 O 4.3301 1.0 0.0 0
M  V30 18 C 3.4641 -0.5 0.0 0
M  V30 19 S 10.4765 -1.1771 0.0 0
M  V30 20 N 11.6206 -0.033 0.0 0
M  V30 21 N 2.598 0.0 0.0 0
M  V30 22 C 3.4641 -1.5 0.0 0
M  V30 23 C 11.3675 -1.6311 0.0 0
M  V30 24 C 12.0746 -0.924 0.0 0
M  V30 25 O 2.598 0.9999 0.0 0
M  V30 26 N 2.655 -2.0877 0.0 0
M  V30 27 N 4.2731 -2.0877 0.0 0
M  V30 28 C 13.0623 -1.0804 0.0 0
M  V30 29 C 1.732 1.4999 0.0 0
M  V30 30 S 2.9641 -3.0388 0.0 0
M  V30 31 C 3.9641 -3.0388 0.0 0
M  V30 32 C 13.4207 -2.014 0.0 0
M  V30 33 C 13.6916 -0.3033 0.0 0
M  V30 34 C 1.732 2.4999 0.0 0
M  V30 35 N 4.5518 -3.8478 0.0 0
M  V30 36 C 14.4084 -2.1704 0.0 0
M  V30 37 C 14.6793 -0.4597 0.0 0
M  V30 38 N 15.0377 -1.3933 0.0 0 CHG=1
M  V30 39 C 16.0254 -1.5497 0.0 0
M  V30 END ATOM
M  V30 BEGIN BOND
M  V30 1 1 2 1 CFG=1
M  V30 2 1 1 3
M  V30 3 1 2 4
M  V30 4 1 5 2
M  V30 5 1 3 6
M  V30 6 1 4 7
M  V30 7 1 4 8
M  V30 8 1 5 9 CFG=1
M  V30 9 1 6 10
M  V30 10 1 7 11
M  V30 11 2 8 12
M  V30 12 1 9 13
M  V30 13 1 10 14
M  V30 14 2 11 15
M  V30 15 1 11 16
M  V30 16 2 13 17
M  V30 17 1 13 18
M  V30 18 1 14 19
M  V30 19 2 14 20
M  V30 20 2 18 21
M  V30 21 1 18 22
M  V30 22 1 19 23
M  V30 23 1 20 24
M  V30 24 1 21 25
M  V30 25 2 22 26
M  V30 26 1 22 27
M  V30 27 1 24 28
M  V30 28 1 25 29
M  V30 29 1 26 30
M  V30 30 2 27 31
M  V30 31 2 28 32
M  V30 32 1 28 33
M  V30 33 1 29 34
M  V30 34 1 31 35
M  V30 35 1 32 36
M  V30 36 2 33 37
M  V30 37 2 36 38
M  V30 38 1 38 39
M  V30 39 1 5 8
M  V30 40 2 6 7
M  V30 41 2 23 24
M  V30 42 1 30 31
M  V30 43 1 37 38
M  V30 END BOND
M  V30 BEGIN COLLECTION
M  V30 MDLV30/STERAC1 ATOMS=(2 2 5)
M  V30 END COLLECTION
M  V30 END CTAB
M  END
>  <Molecule Name>
_c001

>  <status>
-

>  <cas>
700803-62-9

>  <name>
M CEFTAROLINE

>  <ID>
1566

>  <Smiles>
CCO/N=C(\C(N[C@H]([C@@H]1SCC(Sc2nc(-c3cc[n+](C)cc3)cs2)=C(C([O-])=O)N11)C1=O)=O)/c1nsc(N)n1

$$$$
_c001
Actelion Java MolfileCreator 2.0

  0  0  0  0  0  0              0 V3000
M  V30 BEGIN CTAB
M  V30 COUNTS 21 24 0 0 0
M  V30 BEGIN ATOM
M  V30 1 S 2.5131 1.5283 0.0 0
M  V30 2 C 3.0131 0.6623 0.0 0
M  V30 3 C 1.5243 1.6773 0.0 0
M  V30 4 C 2.6478 -0.2685 0.0 0
M  V30 5 C 4.002 0.8113 0.0 0
M  V30 6 C 0.7912 0.9972 0.0 0
M  V30 7 C 1.3018 2.6523 0.0 0
M  V30 8 N 1.6922 -0.5633 0.0 0
M  V30 9 C 3.2713 -1.0503 0.0 0
M  V30 10 C 4.6254 0.0295 0.0 0
M  V30 11 C 0.866 0.0 0.0 0
M  V30 12 C -0.1642 1.2919 0.0 0
M  V30 13 C 0.3462 2.947 0.0 0
M  V30 14 C 4.2601 -0.9013 0.0 0
M  V30 15 N 0.0 -0.5 0.0 0
M  V30 16 C -0.3867 2.2668 0.0 0
M  V30 17 C -0.866 0.0 0.0 0
M  V30 18 C 0.0 -1.4999 0.0 0
M  V30 19 C -1.732 -0.4999 0.0 0
M  V30 20 C -0.866 -1.9999 0.0 0
M  V30 21 N -1.732 -1.4999 0.0 0
M  V30 END ATOM
M  V30 BEGIN BOND
M  V30 1 1 1 2
M  V30 2 1 1 3
M  V30 3 2 2 4
M  V30 4 1 2 5
M  V30 5 2 3 6
M  V30 6 1 3 7
M  V30 7 1 4 8
M  V30 8 1 4 9
M  V30 9 2 5 10
M  V30 10 1 6 11
M  V30 11 1 6 12
M  V30 12 2 7 13
M  V30 13 2 9 14
M  V30 14 1 11 15
M  V30 15 2 12 16
M  V30 16 1 15 17
M  V30 17 1 15 18
M  V30 18 1 17 19
M  V30 19 1 18 20
M  V30 20 1 19 21
M  V30 21 2 8 11
M  V30 22 1 10 14
M  V30 23 1 13 16
M  V30 24 1 20 21
M  V30 END BOND
M  V30 END CTAB
M  END
>  <Molecule Name>
_c001

>  <status>
-

>  <cas>
5747-48-8

>  <name>
M QUETIAPINE

>  <ID>
1567

>  <Smiles>
C(C1)NCCN1C1=Nc(cccc2)c2Sc2c1cccc2

$$$$
_c001
Actelion Java MolfileCreator 2.0

  0  0  0  0  0  0              0 V3000
M  V30 BEGIN CTAB
M  V30 COUNTS 24 28 0 0 0
M  V30 BEGIN ATOM
M  V30 1 O 2.598 0.0 0.0 0
M  V30 2 C 1.732 -0.5 0.0 0
M  V30 3 O 0.866 0.0 0.0 0
M  V30 4 C 1.732 -1.5 0.0 0
M  V30 5 C 0.0 -0.5 0.0 0 CFG=1
M  V30 6 C 2.541 -2.0877 0.0 0
M  V30 7 C 0.923 -2.0877 0.0 0
M  V30 8 C -0.866 0.0 0.0 0
M  V30 9 C 0.0 -1.4999 0.0 0
M  V30 10 C 2.232 -3.0388 0.0 0
M  V30 11 C 3.5192 -1.8798 0.0 0
M  V30 12 N 1.232 -3.0388 0.0 0
M  V30 13 C -1.732 -0.4999 0.0 0 CFG=2
M  V30 14 C -0.8313 -1.9752 0.0 0 CFG=1
M  V30 15 C 2.9011 -3.7819 0.0 0
M  V30 16 C 4.1883 -2.623 0.0 0
M  V30 17 N -1.732 -1.4999 0.0 0
M  V30 18 C -2.8867 -1.1666 0.0 0
M  V30 19 C -1.9306 -2.573 0.0 0
M  V30 20 C 3.8793 -3.574 0.0 0
M  V30 21 C -0.7216 -2.9166 0.0 0
M  V30 22 C -2.8867 -2.1666 0.0 0 CFG=1
M  V30 23 C -1.5877 -3.4166 0.0 0 CFG=2
M  V30 24 O -1.7086 -4.4093 0.0 0
M  V30 END ATOM
M  V30 BEGIN BOND
M  V30 1 2 1 2
M  V30 2 1 2 3
M  V30 3 1 2 4
M  V30 4 1 5 3 CFG=3
M  V30 5 1 4 6
M  V30 6 2 4 7
M  V30 7 1 5 8
M  V30 8 1 5 9
M  V30 9 2 6 10
M  V30 10 1 6 11
M  V30 11 1 7 12
M  V30 12 1 13 8
M  V30 13 1 14 9
M  V30 14 1 10 15
M  V30 15 2 11 16
M  V30 16 1 17 13
M  V30 17 1 13 18 CFG=3
M  V30 18 1 14 19 CFG=3
M  V30 19 2 15 20
M  V30 20 1 17 21 CFG=3
M  V30 21 1 22 18 CFG=1
M  V30 22 1 23 21
M  V30 23 1 23 24 CFG=1
M  V30 24 1 10 12
M  V30 25 1 14 17
M  V30 26 1 16 20
M  V30 27 1 19 22
M  V30 28 1 22 23
M  V30 END BOND
M  V30 BEGIN COLLECTION
M  V30 MDLV30/STERAC1 ATOMS=(5 5 13 14 22 23)
M  V30 END COLLECTION
M  V30 END CTAB
M  END
>  <Molecule Name>
_c001

>  <status>
-

>  <cas>
127951-99-9

>  <name>
M DOLASETRON

>  <ID>
1568

>  <Smiles>
O[C@H](C1)[C@@H](C2)C[C@@H](C3)N1[C@H]2C[C@@H]3OC(c1c[nH]c2c1cccc2)=O

$$$$
_c001
Actelion Java MolfileCreator 2.0

  0  0  0  0  0  0              0 V3000
M  V30 BEGIN CTAB
M  V30 COUNTS 24 28 0 0 0
M  V30 BEGIN ATOM
M  V30 1 O 2.598 0.0 0.0 0
M  V30 2 C 1.732 -0.5 0.0 0
M  V30 3 O 0.866 0.0 0.0 0
M  V30 4 C 1.732 -1.5 0.0 0
M  V30 5 C 0.0 -0.5 0.0 0 CFG=1
M  V30 6 C 2.541 -2.0877 0.0 0
M  V30 7 C 0.923 -2.0877 0.0 0
M  V30 8 C -0.866 0.0 0.0 0
M  V30 9 C 0.0 -1.4999 0.0 0
M  V30 10 C 2.232 -3.0388 0.0 0
M  V30 11 C 3.5192 -1.8798 0.0 0
M  V30 12 N 1.232 -3.0388 0.0 0
M  V30 13 C -1.732 -0.4999 0.0 0 CFG=2
M  V30 14 C -0.8313 -1.9752 0.0 0 CFG=1
M  V30 15 C 2.9011 -3.7819 0.0 0
M  V30 16 C 4.1883 -2.623 0.0 0
M  V30 17 N -1.732 -1.4999 0.0 0
M  V30 18 C -2.8867 -1.1666 0.0 0
M  V30 19 C -1.9306 -2.573 0.0 0
M  V30 20 C 3.8793 -3.574 0.0 0
M  V30 21 C -0.7216 -2.9166 0.0 0
M  V30 22 C -2.8867 -2.1666 0.0 0 CFG=1
M  V30 23 C -1.5877 -3.4166 0.0 0 CFG=1
M  V30 24 O -1.7086 -4.4093 0.0 0
M  V30 END ATOM
M  V30 BEGIN BOND
M  V30 1 2 1 2
M  V30 2 1 2 3
M  V30 3 1 2 4
M  V30 4 1 5 3 CFG=3
M  V30 5 1 4 6
M  V30 6 2 4 7
M  V30 7 1 5 8
M  V30 8 1 5 9
M  V30 9 2 6 10
M  V30 10 1 6 11
M  V30 11 1 7 12
M  V30 12 1 13 8
M  V30 13 1 14 9
M  V30 14 1 10 15
M  V30 15 2 11 16
M  V30 16 1 17 13
M  V30 17 1 13 18 CFG=3
M  V30 18 1 14 19 CFG=3
M  V30 19 2 15 20
M  V30 20 1 17 21 CFG=3
M  V30 21 1 22 18 CFG=1
M  V30 22 1 23 21
M  V30 23 1 23 24 CFG=3
M  V30 24 1 10 12
M  V30 25 1 14 17
M  V30 26 1 16 20
M  V30 27 1 19 22
M  V30 28 1 22 23
M  V30 END BOND
M  V30 BEGIN COLLECTION
M  V30 MDLV30/STERAC1 ATOMS=(5 5 13 14 22 23)
M  V30 END COLLECTION
M  V30 END CTAB
M  END
>  <Molecule Name>
_c001

>  <status>
-

>  <cas>
127951-99-9

>  <name>
M DOLASETRON

>  <ID>
1569

>  <Smiles>
O[C@@H](C1)[C@@H](C2)C[C@@H](C3)N1[C@H]2C[C@@H]3OC(c1c[nH]c2c1cccc2)=O

$$$$
_c001
Actelion Java MolfileCreator 2.0

  0  0  0  0  0  0              0 V3000
M  V30 BEGIN CTAB
M  V30 COUNTS 32 35 0 0 0
M  V30 BEGIN ATOM
M  V30 1 Cl -0.1375 -5.8719 0.0 0
M  V30 2 C -1.084 -5.0959 0.0 0 CFG=2
M  V30 3 C -1.5476 -6.5228 0.0 0 CFG=2
M  V30 4 C 0.3834 -4.784 0.0 0 CFG=1
M  V30 5 C -2.0879 -3.981 0.0 0 CFG=2
M  V30 6 C -3.0152 -6.8347 0.0 0
M  V30 7 C -0.5437 -7.6378 0.0 0
M  V30 8 C 0.2949 -6.2109 0.0 0
M  V30 9 O 1.3873 -5.899 0.0 0
M  V30 10 C 0.7892 -3.4079 0.0 0
M  V30 11 C -1.6243 -2.5541 0.0 0 CFG=1
M  V30 12 C -3.5554 -4.2929 0.0 0
M  V30 13 C -3.4788 -8.2616 0.0 0
M  V30 14 C -4.0191 -5.7198 0.0 0
M  V30 15 C -1.0074 -9.0646 0.0 0
M  V30 16 C -0.1568 -2.2422 0.0 0 CFG=1
M  V30 17 C -2.3744 -1.2548 0.0 0
M  V30 18 C -2.4749 -9.3766 0.0 0
M  V30 19 C 0.0 -0.7501 0.0 0 CFG=1
M  V30 20 C 1.4011 -1.9641 0.0 0
M  V30 21 C -1.3705 -0.1399 0.0 0 CFG=1
M  V30 22 O -2.9385 -10.8034 0.0 0
M  V30 23 O 1.2993 0.0 0.0 0
M  V30 24 C 1.2288 -1.4027 0.0 0
M  V30 25 C -1.6825 1.3275 0.0 0
M  V30 26 C 1.2993 1.5003 0.0 0
M  V30 27 O 2.595 -0.8861 0.0 0
M  V30 28 C 1.2954 -2.964 0.0 0
M  V30 29 O 0.0 2.2504 0.0 0
M  V30 30 C 2.5986 2.2504 0.0 0
M  V30 31 O 2.438 -3.8826 0.0 0
M  V30 32 C 2.5986 3.7507 0.0 0
M  V30 END ATOM
M  V30 BEGIN BOND
M  V30 1 1 2 1 CFG=1
M  V30 2 1 3 2
M  V30 3 1 4 2
M  V30 4 1 5 2
M  V30 5 1 3 6
M  V30 6 1 3 7
M  V30 7 1 3 8 CFG=3
M  V30 8 1 4 9 CFG=3
M  V30 9 1 4 10
M  V30 10 1 11 5
M  V30 11 1 5 12 CFG=1
M  V30 12 2 6 13
M  V30 13 1 6 14
M  V30 14 2 7 15
M  V30 15 1 16 10
M  V30 16 1 11 17 CFG=3
M  V30 17 1 13 18
M  V30 18 1 19 16
M  V30 19 1 16 20 CFG=3
M  V30 20 1 21 17
M  V30 21 2 18 22
M  V30 22 1 19 23
M  V30 23 1 19 24 CFG=3
M  V30 24 1 21 25 CFG=3
M  V30 25 1 23 26
M  V30 26 2 24 27
M  V30 27 1 24 28
M  V30 28 2 26 29
M  V30 29 1 26 30
M  V30 30 1 28 31
M  V30 31 1 30 32
M  V30 32 1 11 16
M  V30 33 1 12 14
M  V30 34 1 15 18
M  V30 35 1 19 21
M  V30 END BOND
M  V30 BEGIN COLLECTION
M  V30 MDLV30/STERAC1 ATOMS=(8 2 3 4 5 11 16 19 21)
M  V30 END COLLECTION
M  V30 END CTAB
M  END
>  <Molecule Name>
_c001

>  <status>
-

>  <cas>
5534-18-9

>  <name>
M BECLOMETHASONE DIPROPIONATE

>  <ID>
1570

>  <Smiles>
CCC(O[C@]([C@@H](C)C1)([C@@](C)(C[C@@H]2O)[C@@H]1[C@H](CCC([C@]1(C)C=C3)=CC3=O)[C@@]12Cl)C(CO)=O)=O

$$$$
_c001
Actelion Java MolfileCreator 2.0

  0  0  0  0  0  0              0 V3000
M  V30 BEGIN CTAB
M  V30 COUNTS 34 38 0 0 0
M  V30 BEGIN ATOM
M  V30 1 O 4.1018 -2.8614 0.0 0
M  V30 2 C 3.1237 -2.6534 0.0 0
M  V30 3 N 2.4546 -3.3966 0.0 0
M  V30 4 C 2.8147 -1.7024 0.0 0
M  V30 5 C 2.7636 -4.3476 0.0 0
M  V30 6 C 1.4764 -3.1887 0.0 0
M  V30 7 N 3.3147 -0.8364 0.0 0
M  V30 8 C 1.8365 -1.4945 0.0 0
M  V30 9 C 2.0944 -5.0908 0.0 0
M  V30 10 C 3.7417 -4.5556 0.0 0
M  V30 11 C 1.1674 -2.2376 0.0 0
M  V30 12 N 2.6455 -0.0932 0.0 0
M  V30 13 C 4.3092 -0.7318 0.0 0
M  V30 14 C 1.732 -0.5 0.0 0
M  V30 15 C 2.4035 -6.0418 0.0 0
M  V30 16 C 4.0507 -5.5066 0.0 0
M  V30 17 C 4.897 -1.5408 0.0 0
M  V30 18 C 4.7159 0.1816 0.0 0
M  V30 19 C 0.866 0.0 0.0 0
M  V30 20 C 3.3816 -6.2498 0.0 0
M  V30 21 C 5.8915 -1.4363 0.0 0
M  V30 22 C 5.7105 0.2861 0.0 0
M  V30 23 O 0.866 1.0 0.0 0
M  V30 24 N 0.0 -0.5 0.0 0
M  V30 25 N 3.6906 -7.2008 0.0 0
M  V30 26 C 6.2982 -0.5228 0.0 0
M  V30 27 C 3.0215 -7.944 0.0 0
M  V30 28 C 4.6688 -7.4087 0.0 0
M  V30 29 O 7.2928 -0.4182 0.0 0
M  V30 30 O 2.0434 -7.736 0.0 0
M  V30 31 C 3.3305 -8.895 0.0 0
M  V30 32 C 4.9778 -8.3598 0.0 0
M  V30 33 C 7.6995 0.4952 0.0 0
M  V30 34 C 4.3087 -9.1029 0.0 0
M  V30 END ATOM
M  V30 BEGIN BOND
M  V30 1 2 1 2
M  V30 2 1 2 3
M  V30 3 1 2 4
M  V30 4 1 3 5
M  V30 5 1 3 6
M  V30 6 1 4 7
M  V30 7 2 4 8
M  V30 8 2 5 9
M  V30 9 1 5 10
M  V30 10 1 6 11
M  V30 11 1 7 12
M  V30 12 1 7 13
M  V30 13 1 8 14
M  V30 14 1 9 15
M  V30 15 2 10 16
M  V30 16 2 13 17
M  V30 17 1 13 18
M  V30 18 1 14 19
M  V30 19 2 15 20
M  V30 20 1 17 21
M  V30 21 2 18 22
M  V30 22 2 19 23
M  V30 23 1 19 24
M  V30 24 1 20 25
M  V30 25 2 21 26
M  V30 26 1 25 27
M  V30 27 1 25 28
M  V30 28 1 26 29
M  V30 29 2 27 30
M  V30 30 1 27 31
M  V30 31 1 28 32
M  V30 32 1 29 33
M  V30 33 1 31 34
M  V30 34 1 8 11
M  V30 35 2 12 14
M  V30 36 1 16 20
M  V30 37 1 22 26
M  V30 38 1 32 34
M  V30 END BOND
M  V30 END CTAB
M  END
>  <Molecule Name>
_c001

>  <status>
-

>  <cas>
503612-47-3

>  <name>
APIXABAN

>  <ID>
1571

>  <Smiles>
COc(cc1)ccc1-n1nc(C(N)=O)c(CCN2c(cc3)ccc3N(CCCC3)C3=O)c1C2=O

$$$$
_c001
Actelion Java MolfileCreator 2.0

  0  0  0  0  0  0              0 V3000
M  V30 BEGIN CTAB
M  V30 COUNTS 50 55 0 0 0
M  V30 BEGIN ATOM
M  V30 1 F 7.0585 5.462 0.0 0
M  V30 2 C 7.81 6.7637 0.0 0
M  V30 3 F 6.5084 7.5152 0.0 0
M  V30 4 F 8.5616 8.0654 0.0 0
M  V30 5 C 9.1117 6.0122 0.0 0
M  V30 6 C 9.1117 4.5091 0.0 0
M  V30 7 C 10.4134 6.7637 0.0 0
M  V30 8 C 10.4134 3.7576 0.0 0
M  V30 9 C 11.7151 6.0122 0.0 0
M  V30 10 C 11.7151 4.5091 0.0 0
M  V30 11 C 13.0168 3.7576 0.0 0
M  V30 12 C 13.0168 2.2545 0.0 0
M  V30 13 C 14.3185 4.5091 0.0 0
M  V30 14 C 11.7151 1.503 0.0 0
M  V30 15 C 14.3185 1.503 0.0 0
M  V30 16 C 15.6201 3.7576 0.0 0
M  V30 17 O 11.7151 0.0 0.0 0
M  V30 18 N 10.4134 2.2545 0.0 0
M  V30 19 C 15.6201 2.2545 0.0 0
M  V30 20 C 9.1117 1.503 0.0 0
M  V30 21 C 7.81 2.2545 0.0 0
M  V30 22 C 9.1117 0.0 0.0 0
M  V30 23 C 6.5084 1.503 0.0 0
M  V30 24 C 7.81 -0.7515 0.0 0
M  V30 25 N 6.5084 0.0 0.0 0
M  V30 26 C 5.2067 -0.7515 0.0 0
M  V30 27 C 3.905 0.0 0.0 0
M  V30 28 C 2.6033 -0.7515 0.0 0
M  V30 29 C 1.3016 0.0 0.0 0
M  V30 30 C 0.0 -0.7515 0.0 0
M  V30 31 C -0.1571 -2.2463 0.0 0
M  V30 32 C -1.3731 -0.1401 0.0 0
M  V30 33 C -0.0786 0.7494 0.0 0
M  V30 34 C -1.6273 -2.5588 0.0 0
M  V30 35 C 0.8486 -3.3633 0.0 0
M  V30 36 C -2.3788 -1.2571 0.0 0
M  V30 37 C -1.9105 1.2645 0.0 0
M  V30 38 O -1.2719 1.4814 0.0 0
M  V30 39 N 1.1819 1.568 0.0 0
M  V30 40 C -2.0917 -3.9883 0.0 0
M  V30 41 C 0.3841 -4.7928 0.0 0
M  V30 42 C -3.849 -0.9446 0.0 0
M  V30 43 C -3.3077 1.6018 0.0 0
M  V30 44 C 1.1032 3.069 0.0 0
M  V30 45 C -1.086 -5.1053 0.0 0
M  V30 46 C -4.3135 0.4848 0.0 0
M  V30 47 C 2.3638 3.8877 0.0 0
M  V30 48 F 3.1824 2.6271 0.0 0
M  V30 49 F 3.6243 4.7063 0.0 0
M  V30 50 F 1.5451 5.1482 0.0 0
M  V30 END ATOM
M  V30 BEGIN BOND
M  V30 1 1 1 2
M  V30 2 1 2 3
M  V30 3 1 2 4
M  V30 4 1 2 5
M  V30 5 2 5 6
M  V30 6 1 5 7
M  V30 7 1 6 8
M  V30 8 2 7 9
M  V30 9 2 8 10
M  V30 10 1 10 11
M  V30 11 2 11 12
M  V30 12 1 11 13
M  V30 13 1 12 14
M  V30 14 1 12 15
M  V30 15 2 13 16
M  V30 16 2 14 17
M  V30 17 1 14 18
M  V30 18 2 15 19
M  V30 19 1 18 20
M  V30 20 1 20 21
M  V30 21 1 20 22
M  V30 22 1 21 23
M  V30 23 1 22 24
M  V30 24 1 23 25
M  V30 25 1 25 26
M  V30 26 1 26 27
M  V30 27 1 27 28
M  V30 28 1 28 29
M  V30 29 1 29 30
M  V30 30 1 30 31
M  V30 31 1 30 32
M  V30 32 1 30 33
M  V30 33 2 31 34
M  V30 34 1 31 35
M  V30 35 2 32 36
M  V30 36 1 32 37
M  V30 37 2 33 38
M  V30 38 1 33 39
M  V30 39 1 34 40
M  V30 40 2 35 41
M  V30 41 1 36 42
M  V30 42 2 37 43
M  V30 43 1 39 44
M  V30 44 2 40 45
M  V30 45 2 42 46
M  V30 46 1 44 47
M  V30 47 1 47 48
M  V30 48 1 47 49
M  V30 49 1 47 50
M  V30 50 1 9 10
M  V30 51 1 16 19
M  V30 52 1 24 25
M  V30 53 1 34 36
M  V30 54 1 41 45
M  V30 55 1 43 46
M  V30 END BOND
M  V30 END CTAB
M  END
>  <Molecule Name>
_c001

>  <status>
-

>  <cas>
182431-12-5

>  <name>
LOMITAPIDE

>  <ID>
1572

>  <Smiles>
O=C(C1(CCCCN(CC2)CCC2NC(c(cccc2)c2-c2ccc(C(F)(F)F)cc2)=O)c(cccc2)c2-c2c1cccc2)NCC(F)(F)F

$$$$
_c001
Actelion Java MolfileCreator 2.0

  0  0  0  0  0  0              0 V3000
M  V30 BEGIN CTAB
M  V30 COUNTS 24 23 0 0 0
M  V30 BEGIN ATOM
M  V30 1 O 14.7224 0.9999 0.0 0
M  V30 2 C 13.8564 1.4999 0.0 0
M  V30 3 O 13.8564 2.4999 0.0 0
M  V30 4 C 12.9903 0.9999 0.0 0
M  V30 5 C 14.7224 2.9999 0.0 0
M  V30 6 C 12.9903 0.0 0.0 0
M  V30 7 C 14.7224 3.9999 0.0 0
M  V30 8 C 12.1243 -0.5 0.0 0
M  V30 9 C 12.1243 -1.5 0.0 0
M  V30 10 C 11.2583 -2.0 0.0 0
M  V30 11 C 10.3923 -1.5 0.0 0
M  V30 12 C 10.3923 -0.5 0.0 0
M  V30 13 C 9.5262 0.0 0.0 0
M  V30 14 C 8.6602 -0.5 0.0 0
M  V30 15 C 7.7942 0.0 0.0 0
M  V30 16 C 6.9282 -0.5 0.0 0
M  V30 17 C 6.9282 -1.4999 0.0 0
M  V30 18 C 6.0621 -2.0 0.0 0
M  V30 19 C 6.0621 -3.0 0.0 0
M  V30 20 C 6.9282 -3.4999 0.0 0
M  V30 21 C 6.9282 -4.5 0.0 0
M  V30 22 C 7.7942 -4.9999 0.0 0
M  V30 23 C 8.6602 -4.4999 0.0 0
M  V30 24 C 9.5262 -4.9999 0.0 0
M  V30 END ATOM
M  V30 BEGIN BOND
M  V30 1 2 1 2
M  V30 2 1 2 3
M  V30 3 1 2 4
M  V30 4 1 3 5
M  V30 5 1 4 6
M  V30 6 1 5 7
M  V30 7 1 6 8
M  V30 8 1 8 9
M  V30 9 2 9 10
M  V30 10 1 10 11
M  V30 11 1 11 12
M  V30 12 2 12 13
M  V30 13 1 13 14
M  V30 14 1 14 15
M  V30 15 2 15 16
M  V30 16 1 16 17
M  V30 17 1 17 18
M  V30 18 2 18 19
M  V30 19 1 19 20
M  V30 20 1 20 21
M  V30 21 2 21 22
M  V30 22 1 22 23
M  V30 23 1 23 24
M  V30 END BOND
M  V30 END CTAB
M  END
>  <Molecule Name>
_c001

>  <status>
-

>  <cas>
86227-47-6

>  <name>
ICOSAPENT ETHYL

>  <ID>
1573

>  <Smiles>
CC/C=C\C/C=C\C/C=C\C/C=C\C/C=C\CCCC(OCC)=O

$$$$
_c001
Actelion Java MolfileCreator 2.0

  0  0  0  0  0  0              0 V3000
M  V30 BEGIN CTAB
M  V30 COUNTS 22 21 0 0 0
M  V30 BEGIN ATOM
M  V30 1 O 13.8564 2.4999 0.0 0
M  V30 2 C 13.8564 1.4999 0.0 0
M  V30 3 O 14.7224 0.9999 0.0 0 CHG=-1
M  V30 4 C 12.9903 0.9999 0.0 0
M  V30 5 C 12.9903 0.0 0.0 0
M  V30 6 C 12.1243 -0.5 0.0 0
M  V30 7 C 12.1243 -1.5 0.0 0
M  V30 8 C 11.2583 -2.0 0.0 0
M  V30 9 C 10.3923 -1.5 0.0 0
M  V30 10 C 10.3923 -0.5 0.0 0
M  V30 11 C 9.5262 0.0 0.0 0
M  V30 12 C 8.6602 -0.5 0.0 0
M  V30 13 C 7.7942 0.0 0.0 0
M  V30 14 C 6.9282 -0.5 0.0 0
M  V30 15 C 6.9282 -1.4999 0.0 0
M  V30 16 C 6.0621 -2.0 0.0 0
M  V30 17 C 6.0621 -3.0 0.0 0
M  V30 18 C 6.9282 -3.4999 0.0 0
M  V30 19 C 6.9282 -4.5 0.0 0
M  V30 20 C 7.7942 -4.9999 0.0 0
M  V30 21 C 8.6602 -4.4999 0.0 0
M  V30 22 C 9.5262 -4.9999 0.0 0
M  V30 END ATOM
M  V30 BEGIN BOND
M  V30 1 2 1 2
M  V30 2 1 2 3
M  V30 3 1 2 4
M  V30 4 1 4 5
M  V30 5 1 5 6
M  V30 6 1 6 7
M  V30 7 2 7 8
M  V30 8 1 8 9
M  V30 9 1 9 10
M  V30 10 2 10 11
M  V30 11 1 11 12
M  V30 12 1 12 13
M  V30 13 2 13 14
M  V30 14 1 14 15
M  V30 15 1 15 16
M  V30 16 2 16 17
M  V30 17 1 17 18
M  V30 18 1 18 19
M  V30 19 2 19 20
M  V30 20 1 20 21
M  V30 21 1 21 22
M  V30 END BOND
M  V30 END CTAB
M  END
>  <Molecule Name>
_c001

>  <status>
-

>  <cas>
10417-94-4

>  <name>
ICOSAPENT

>  <ID>
1574

>  <Smiles>
CC/C=C\C/C=C\C/C=C\C/C=C\C/C=C\CCCC([O-])=O

$$$$
_c001
Actelion Java MolfileCreator 2.0

  0  0  0  0  0  0              0 V3000
M  V30 BEGIN CTAB
M  V30 COUNTS 13 14 0 0 0
M  V30 BEGIN ATOM
M  V30 1 Cl 0.866 0.0 0.0 0
M  V30 2 C 0.0 -0.5 0.0 0
M  V30 3 C -0.866 0.0 0.0 0
M  V30 4 C 0.0 -1.4999 0.0 0
M  V30 5 C -1.732 -0.4999 0.0 0
M  V30 6 C -0.866 -1.9999 0.0 0
M  V30 7 C -1.732 -1.4999 0.0 0
M  V30 8 C -2.5138 0.1234 0.0 0 CFG=2
M  V30 9 C -2.5138 -2.1234 0.0 0
M  V30 10 C -3.4888 -0.099 0.0 0
M  V30 11 C -2.2913 1.0984 0.0 0
M  V30 12 C -3.4888 -1.9009 0.0 0
M  V30 13 N -3.9226 -0.9999 0.0 0
M  V30 END ATOM
M  V30 BEGIN BOND
M  V30 1 1 1 2
M  V30 2 2 2 3
M  V30 3 1 2 4
M  V30 4 1 3 5
M  V30 5 2 4 6
M  V30 6 2 5 7
M  V30 7 1 8 5
M  V30 8 1 7 9
M  V30 9 1 8 10
M  V30 10 1 8 11 CFG=3
M  V30 11 1 9 12
M  V30 12 1 10 13
M  V30 13 1 6 7
M  V30 14 1 12 13
M  V30 END BOND
M  V30 BEGIN COLLECTION
M  V30 MDLV30/STERAC1 ATOMS=(1 8)
M  V30 END COLLECTION
M  V30 END CTAB
M  END
>  <Molecule Name>
_c001

>  <status>
-

>  <cas>
616202-92-7

>  <name>
LORCASERIN

>  <ID>
1575

>  <Smiles>
CC(CNCC1)c2c1ccc(Cl)c2

$$$$
_c001
Actelion Java MolfileCreator 2.0

  0  0  0  0  0  0              0 V3000
M  V30 BEGIN CTAB
M  V30 COUNTS 37 41 0 0 0
M  V30 BEGIN ATOM
M  V30 1 F -5.2526 -7.2488 0.0 0
M  V30 2 C -4.5022 -5.9491 0.0 0
M  V30 3 C -3.0015 -5.9491 0.0 0
M  V30 4 C -5.2526 -4.6494 0.0 0
M  V30 5 C -2.2511 -4.6494 0.0 0
M  V30 6 C -4.5022 -3.3497 0.0 0
M  V30 7 C -3.0015 -3.3497 0.0 0
M  V30 8 N -2.2511 -2.05 0.0 0
M  V30 9 C -0.7503 -2.05 0.0 0
M  V30 10 O -0.0355 -3.3544 0.0 0
M  V30 11 C 0.0 -0.7503 0.0 0
M  V30 12 C 1.0611 -1.8115 0.0 0
M  V30 13 C 0.0 0.7503 0.0 0
M  V30 14 C 1.2996 0.0 0.0 0
M  V30 15 O 2.5108 -1.4231 0.0 0
M  V30 16 N 0.6905 -3.2588 0.0 0
M  V30 17 C 1.7339 -4.3223 0.0 0
M  V30 18 C 1.3455 -5.772 0.0 0
M  V30 19 C 3.1835 -3.9339 0.0 0
M  V30 20 C 2.4067 -6.8332 0.0 0
M  V30 21 C 4.2447 -4.9951 0.0 0
M  V30 22 C 3.8563 -6.4447 0.0 0
M  V30 23 O 4.9175 -7.5059 0.0 0
M  V30 24 C 6.3671 -7.1175 0.0 0
M  V30 25 C 7.4283 -8.1787 0.0 0
M  V30 26 C 6.7555 -5.6679 0.0 0
M  V30 27 C 8.8779 -7.7903 0.0 0
M  V30 28 C 7.0399 -9.6283 0.0 0
M  V30 29 C 8.2052 -5.2795 0.0 0
M  V30 30 N 9.2664 -6.3406 0.0 0
M  V30 31 C 9.9391 -8.8515 0.0 0
M  V30 32 C 8.1011 -10.6895 0.0 0
M  V30 33 C 9.5507 -10.3011 0.0 0
M  V30 34 O 7.7127 -12.1391 0.0 0
M  V30 35 O 10.6119 -11.3623 0.0 0
M  V30 36 C 8.7739 -13.2003 0.0 0
M  V30 37 C 12.0615 -10.9739 0.0 0
M  V30 END ATOM
M  V30 BEGIN BOND
M  V30 1 1 1 2
M  V30 2 2 2 3
M  V30 3 1 2 4
M  V30 4 1 3 5
M  V30 5 2 4 6
M  V30 6 2 5 7
M  V30 7 1 7 8
M  V30 8 1 8 9
M  V30 9 2 9 10
M  V30 10 1 9 11
M  V30 11 1 11 12
M  V30 12 1 11 13
M  V30 13 1 11 14
M  V30 14 2 12 15
M  V30 15 1 12 16
M  V30 16 1 16 17
M  V30 17 2 17 18
M  V30 18 1 17 19
M  V30 19 1 18 20
M  V30 20 2 19 21
M  V30 21 2 20 22
M  V30 22 1 22 23
M  V30 23 1 23 24
M  V30 24 1 24 25
M  V30 25 2 24 26
M  V30 26 1 25 27
M  V30 27 2 25 28
M  V30 28 1 26 29
M  V30 29 1 27 30
M  V30 30 2 27 31
M  V30 31 1 28 32
M  V30 32 1 31 33
M  V30 33 1 32 34
M  V30 34 1 33 35
M  V30 35 1 34 36
M  V30 36 1 35 37
M  V30 37 1 6 7
M  V30 38 1 13 14
M  V30 39 1 21 22
M  V30 40 2 29 30
M  V30 41 2 32 33
M  V30 END BOND
M  V30 END CTAB
M  END
>  <Molecule Name>
_c001

>  <status>
-

>  <cas>
849217-68-1

>  <name>
CABOZANTINIB

>  <ID>
1576

>  <Smiles>
COc(cc1c(Oc(cc2)ccc2NC(C2(CC2)C(Nc(cc2)ccc2F)=O)=O)ccnc1c1)c1OC

$$$$
_c001
Actelion Java MolfileCreator 2.0

  0  0  0  0  0  0              0 V3000
M  V30 BEGIN CTAB
M  V30 COUNTS 77 84 0 0 0
M  V30 BEGIN ATOM
M  V30 1 O 7.7788 -2.5684 0.0 0
M  V30 2 C 6.7788 -2.5684 0.0 0
M  V30 3 N 6.2788 -1.7024 0.0 0
M  V30 4 C 6.2788 -3.4344 0.0 0 CFG=1
M  V30 5 C 6.7788 -0.8364 0.0 0 CFG=2
M  V30 6 C 5.3006 -1.4945 0.0 0
M  V30 7 N 6.7788 -4.3005 0.0 0
M  V30 8 C 5.2788 -3.4344 0.0 0
M  V30 9 C 7.7788 -0.8364 0.0 0
M  V30 10 C 6.1096 -0.0932 0.0 0
M  V30 11 C 5.1961 -0.5 0.0 0 CFG=1
M  V30 12 C 7.7788 -4.3005 0.0 0
M  V30 13 C 4.7788 -4.3005 0.0 0
M  V30 14 O 8.2788 -1.7024 0.0 0
M  V30 15 N 8.2788 0.0296 0.0 0
M  V30 16 O 4.3301 0.0 0.0 0
M  V30 17 O 8.2788 -3.4344 0.0 0
M  V30 18 C 8.2788 -5.1665 0.0 0 CFG=1
M  V30 19 C 3.7788 -4.3005 0.0 0
M  V30 20 C 5.2788 -5.1665 0.0 0
M  V30 21 C 9.2788 0.0296 0.0 0 CFG=2
M  V30 22 C 3.4641 -0.5 0.0 0
M  V30 23 N 9.2788 -5.1665 0.0 0
M  V30 24 C 7.7788 -6.0325 0.0 0
M  V30 25 C 3.2788 -5.1665 0.0 0
M  V30 26 C 4.7788 -6.0325 0.0 0
M  V30 27 C 9.7788 -0.8364 0.0 0
M  V30 28 C 9.7788 0.8956 0.0 0
M  V30 29 O 3.4641 -1.5 0.0 0
M  V30 30 N 2.598 0.0 0.0 0
M  V30 31 C 9.7788 -4.3005 0.0 0
M  V30 32 C 8.2788 -6.8985 0.0 0
M  V30 33 C 3.7788 -6.0325 0.0 0
M  V30 34 O 9.2788 -1.7024 0.0 0
M  V30 35 N 10.7788 -0.8364 0.0 0
M  V30 36 C 10.7788 0.8956 0.0 0
M  V30 37 C 9.2788 1.7616 0.0 0
M  V30 38 C 1.732 -0.5 0.0 0
M  V30 39 O 9.2788 -3.4344 0.0 0
M  V30 40 C 10.7788 -4.3005 0.0 0 CFG=1
M  V30 41 C 7.7788 -7.7646 0.0 0
M  V30 42 C 9.2788 -6.8985 0.0 0
M  V30 43 C 11.2788 -1.7024 0.0 0 CFG=1
M  V30 44 C 11.2788 1.7616 0.0 0
M  V30 45 C 9.7788 2.6276 0.0 0
M  V30 46 C 0.866 0.0 0.0 0
M  V30 47 N 11.2788 -3.4344 0.0 0
M  V30 48 C 11.2788 -5.1665 0.0 0
M  V30 49 C 8.2788 -8.6306 0.0 0
M  V30 50 C 9.7788 -7.7646 0.0 0
M  V30 51 C 10.7788 -2.5684 0.0 0
M  V30 52 C 12.2788 -1.7024 0.0 0
M  V30 53 C 10.7788 2.6276 0.0 0
M  V30 54 N 0.0 -0.5 0.0 0
M  V30 55 C 10.7788 -6.0325 0.0 0
M  V30 56 C 9.2788 -8.6306 0.0 0
M  V30 57 O 9.7788 -2.5684 0.0 0
M  V30 58 C 12.7788 -0.8364 0.0 0
M  V30 59 C 11.2788 -6.8985 0.0 0
M  V30 60 O 9.7788 -9.4966 0.0 0
M  V30 61 C 13.7733 -0.7318 0.0 0
M  V30 62 C 12.372 0.0771 0.0 0
M  V30 63 C 10.7788 -7.7646 0.0 0
M  V30 64 C 9.2788 -10.3626 0.0 0
M  V30 65 C 13.9812 0.2462 0.0 0
M  V30 66 C 14.5164 -1.401 0.0 0
M  V30 67 N 13.1152 0.7462 0.0 0
M  V30 68 N 11.2788 -8.6306 0.0 0
M  V30 69 C 9.7788 -11.2287 0.0 0
M  V30 70 C 14.9323 0.5552 0.0 0
M  V30 71 C 15.4675 -1.0919 0.0 0
M  V30 72 C 9.2788 -12.0947 0.0 0
M  V30 73 C 10.7788 -11.2287 0.0 0
M  V30 74 C 15.6754 -0.1138 0.0 0
M  V30 75 C 9.7788 -12.9607 0.0 0
M  V30 76 C 11.2788 -12.0947 0.0 0
M  V30 77 C 10.7788 -12.9607 0.0 0
M  V30 END ATOM
M  V30 BEGIN BOND
M  V30 1 2 1 2
M  V30 2 1 2 3
M  V30 3 1 4 2
M  V30 4 1 5 3 CFG=1
M  V30 5 1 3 6
M  V30 6 1 4 7
M  V30 7 1 4 8 CFG=1
M  V30 8 1 5 9
M  V30 9 1 5 10
M  V30 10 1 11 6
M  V30 11 1 7 12
M  V30 12 1 8 13
M  V30 13 2 9 14
M  V30 14 1 9 15
M  V30 15 1 11 16 CFG=3
M  V30 16 2 12 17
M  V30 17 1 18 12
M  V30 18 2 13 19
M  V30 19 1 13 20
M  V30 20 1 21 15
M  V30 21 1 16 22
M  V30 22 1 18 23
M  V30 23 1 18 24 CFG=1
M  V30 24 1 19 25
M  V30 25 2 20 26
M  V30 26 1 21 27
M  V30 27 1 21 28 CFG=1
M  V30 28 2 22 29
M  V30 29 1 22 30
M  V30 30 1 23 31
M  V30 31 1 24 32
M  V30 32 2 25 33
M  V30 33 2 27 34
M  V30 34 1 27 35
M  V30 35 2 28 36
M  V30 36 1 28 37
M  V30 37 1 30 38
M  V30 38 2 31 39
M  V30 39 1 40 31
M  V30 40 2 32 41
M  V30 41 1 32 42
M  V30 42 1 43 35
M  V30 43 1 36 44
M  V30 44 2 37 45
M  V30 45 1 38 46
M  V30 46 1 40 47
M  V30 47 1 40 48 CFG=1
M  V30 48 1 41 49
M  V30 49 2 42 50
M  V30 50 1 43 51
M  V30 51 1 43 52 CFG=3
M  V30 52 2 44 53
M  V30 53 1 46 54
M  V30 54 1 48 55
M  V30 55 2 49 56
M  V30 56 2 51 57
M  V30 57 1 52 58
M  V30 58 1 55 59
M  V30 59 1 56 60
M  V30 60 1 58 61
M  V30 61 2 58 62
M  V30 62 1 59 63
M  V30 63 1 60 64
M  V30 64 2 61 65
M  V30 65 1 61 66
M  V30 66 1 62 67
M  V30 67 1 63 68
M  V30 68 1 64 69
M  V30 69 1 65 70
M  V30 70 2 66 71
M  V30 71 2 69 72
M  V30 72 1 69 73
M  V30 73 2 70 74
M  V30 74 1 72 75
M  V30 75 2 73 76
M  V30 76 2 75 77
M  V30 77 1 10 11
M  V30 78 1 26 33
M  V30 79 1 45 53
M  V30 80 1 47 51
M  V30 81 1 50 56
M  V30 82 1 65 67
M  V30 83 1 71 74
M  V30 84 1 76 77
M  V30 END BOND
M  V30 BEGIN COLLECTION
M  V30 MDLV30/STERAC1 ATOMS=(7 4 5 11 18 21 40 43)
M  V30 END COLLECTION
M  V30 END CTAB
M  END
>  <Molecule Name>
_c001

>  <status>
-

>  <cas>
396091-73-9

>  <name>
PASIREOTIDE

>  <ID>
1577

>  <Smiles>
NCCCC[C@@H](C(N[C@@H](Cc(cc1)ccc1OCc1ccccc1)C(N[C@@H](Cc1ccccc1)C(N(C[C@@H](C1)OC(NCCN)=O)[C@@H]1C(N[C@@H](c1ccccc1)C(N[C@@H]1Cc2c[nH]c3c2cccc3)=O)=O)=O)=O)=O)NC1=O

$$$$
_c001
Actelion Java MolfileCreator 2.0

  0  0  0  0  0  0              0 V3000
M  V30 BEGIN CTAB
M  V30 COUNTS 19 19 0 0 0
M  V30 BEGIN ATOM
M  V30 1 F 4.6961 2.366 0.0 0
M  V30 2 C 5.1961 1.5 0.0 0
M  V30 3 F 6.0621 2.0 0.0 0
M  V30 4 F 5.6961 0.6339 0.0 0
M  V30 5 C 4.3301 1.0 0.0 0
M  V30 6 C 3.4641 1.5 0.0 0
M  V30 7 C 4.3301 0.0 0.0 0
M  V30 8 C 2.598 0.9999 0.0 0
M  V30 9 C 3.4641 -0.4999 0.0 0
M  V30 10 C 2.598 0.0 0.0 0
M  V30 11 N 1.732 -0.5 0.0 0
M  V30 12 C 0.866 0.0 0.0 0
M  V30 13 O 0.866 1.0 0.0 0
M  V30 14 C 0.0 -0.5 0.0 0
M  V30 15 C -0.866 0.0 0.0 0
M  V30 16 C 0.0 -1.5 0.0 0
M  V30 17 N -1.732 0.5 0.0 0
M  V30 18 O 0.866 -2.0 0.0 0
M  V30 19 C -0.866 -1.9999 0.0 0
M  V30 END ATOM
M  V30 BEGIN BOND
M  V30 1 1 1 2
M  V30 2 1 2 3
M  V30 3 1 2 4
M  V30 4 1 2 5
M  V30 5 2 5 6
M  V30 6 1 5 7
M  V30 7 1 6 8
M  V30 8 2 7 9
M  V30 9 2 8 10
M  V30 10 1 10 11
M  V30 11 1 11 12
M  V30 12 2 12 13
M  V30 13 1 12 14
M  V30 14 1 14 15
M  V30 15 2 14 16
M  V30 16 3 15 17
M  V30 17 1 16 18
M  V30 18 1 16 19
M  V30 19 1 9 10
M  V30 END BOND
M  V30 END CTAB
M  END
>  <Molecule Name>
_c001

>  <status>
-

>  <cas>
163451-81-8

>  <name>
TERIFLUNOMIDE

>  <ID>
1578

>  <Smiles>
C/C(/O)=C(/C(Nc1ccc(C(F)(F)F)cc1)=O)\C#N

$$$$
_c001
Actelion Java MolfileCreator 2.0

  0  0  0  0  0  0              0 V3000
M  V30 BEGIN CTAB
M  V30 COUNTS 27 30 0 0 0
M  V30 BEGIN ATOM
M  V30 1 O 0.866 0.0 0.0 0
M  V30 2 C 0.0 -0.5 0.0 0
M  V30 3 N -0.866 0.0 0.0 0
M  V30 4 C 0.0 -1.4999 0.0 0
M  V30 5 C -0.866 1.0 0.0 0
M  V30 6 C -1.732 -0.4999 0.0 0
M  V30 7 C 0.866 -2.0 0.0 0
M  V30 8 C -0.866 -1.9999 0.0 0
M  V30 9 C 0.0 1.4999 0.0 0
M  V30 10 C -1.732 1.5 0.0 0
M  V30 11 C -1.732 -1.4999 0.0 0
M  V30 12 C 0.866 -3.0 0.0 0
M  V30 13 C 1.732 -1.5 0.0 0
M  V30 14 C 0.0 2.4999 0.0 0
M  V30 15 C -1.732 2.5 0.0 0
M  V30 16 C -2.598 -1.9999 0.0 0
M  V30 17 C 0.0 -3.4999 0.0 0
M  V30 18 C 1.732 -3.5 0.0 0
M  V30 19 C 2.598 -2.0 0.0 0
M  V30 20 C -0.866 3.0 0.0 0
M  V30 21 N -3.4641 -1.4999 0.0 0
M  V30 22 C -2.598 -2.9999 0.0 0
M  V30 23 N -0.866 -3.9999 0.0 0
M  V30 24 C 2.598 -3.0 0.0 0
M  V30 25 C -4.3301 -1.9999 0.0 0
M  V30 26 C -3.4641 -3.4999 0.0 0
M  V30 27 C -4.3301 -2.9999 0.0 0
M  V30 END ATOM
M  V30 BEGIN BOND
M  V30 1 2 1 2
M  V30 2 1 2 3
M  V30 3 1 2 4
M  V30 4 1 3 5
M  V30 5 1 3 6
M  V30 6 1 4 7
M  V30 7 2 4 8
M  V30 8 2 5 9
M  V30 9 1 5 10
M  V30 10 2 6 11
M  V30 11 2 7 12
M  V30 12 1 7 13
M  V30 13 1 9 14
M  V30 14 2 10 15
M  V30 15 1 11 16
M  V30 16 1 12 17
M  V30 17 1 12 18
M  V30 18 2 13 19
M  V30 19 2 14 20
M  V30 20 2 16 21
M  V30 21 1 16 22
M  V30 22 3 17 23
M  V30 23 2 18 24
M  V30 24 1 21 25
M  V30 25 2 22 26
M  V30 26 2 25 27
M  V30 27 1 8 11
M  V30 28 1 15 20
M  V30 29 1 19 24
M  V30 30 1 26 27
M  V30 END BOND
M  V30 END CTAB
M  END
>  <Molecule Name>
_c001

>  <status>
-

>  <cas>
380917-97-5

>  <name>
PERAMPANEL

>  <ID>
1579

>  <Smiles>
N#Cc(cccc1)c1C1=CC(c2ncccc2)=CN(c2ccccc2)C1=O

$$$$
_c001
Actelion Java MolfileCreator 2.0

  0  0  0  0  0  0              0 V3000
M  V30 BEGIN CTAB
M  V30 COUNTS 52 55 0 0 0
M  V30 BEGIN ATOM
M  V30 1 O 7.7942 -2.0 0.0 0
M  V30 2 C 8.6602 -1.5 0.0 0
M  V30 3 N 9.5262 -1.9999 0.0 0
M  V30 4 C 8.6602 -0.5 0.0 0 CFG=2
M  V30 5 C 9.5262 -2.9999 0.0 0 CFG=1
M  V30 6 N 7.7942 0.0 0.0 0
M  V30 7 C 9.5262 0.0 0.0 0
M  V30 8 C 10.3923 -3.4999 0.0 0
M  V30 9 C 8.6602 -3.5 0.0 0
M  V30 10 C 6.9282 -0.5 0.0 0
M  V30 11 C 9.5262 1.0 0.0 0
M  V30 12 O 10.3923 -4.4999 0.0 0
M  V30 13 C 11.2583 -2.9999 0.0 0 CFG=1
M  V30 14 C 8.6602 -4.5 0.0 0
M  V30 15 O 6.9282 -1.4999 0.0 0
M  V30 16 C 6.0621 0.0 0.0 0 CFG=2
M  V30 17 C 10.3923 1.4999 0.0 0
M  V30 18 C 8.6602 1.5 0.0 0
M  V30 19 O 11.7583 -2.1339 0.0 0
M  V30 20 C 12.2583 -2.9999 0.0 0
M  V30 21 C 10.5512 -2.2928 0.0 0
M  V30 22 C 7.7942 -5.0 0.0 0
M  V30 23 C 9.5262 -4.9999 0.0 0
M  V30 24 N 5.1961 -0.5 0.0 0
M  V30 25 C 6.0621 0.9999 0.0 0
M  V30 26 C 10.3923 2.4999 0.0 0
M  V30 27 C 8.6602 2.5 0.0 0
M  V30 28 C 4.3301 0.0 0.0 0
M  V30 29 C 6.9282 1.4999 0.0 0
M  V30 30 C 9.5262 3.0 0.0 0
M  V30 31 O 4.3301 1.0 0.0 0
M  V30 32 C 3.4641 -0.5 0.0 0 CFG=2
M  V30 33 C 7.7942 0.9999 0.0 0
M  V30 34 C 6.9282 2.4999 0.0 0
M  V30 35 N 2.598 0.0 0.0 0
M  V30 36 C 3.4641 -1.5 0.0 0
M  V30 37 C 1.732 -0.5 0.0 0
M  V30 38 C 2.598 -2.0 0.0 0
M  V30 39 O 1.732 -1.5 0.0 0
M  V30 40 C 0.866 0.0 0.0 0
M  V30 41 C 2.598 -3.0 0.0 0
M  V30 42 N 0.0 -0.5 0.0 0
M  V30 43 C 1.732 -3.4999 0.0 0
M  V30 44 C 3.4641 -3.5 0.0 0
M  V30 45 C -0.866 0.0 0.0 0
M  V30 46 C 0.0 -1.4999 0.0 0
M  V30 47 C 1.732 -4.5 0.0 0
M  V30 48 C 3.4641 -4.5 0.0 0
M  V30 49 C -1.732 -0.4999 0.0 0
M  V30 50 C -0.866 -1.9999 0.0 0
M  V30 51 C 2.598 -5.0 0.0 0
M  V30 52 O -1.732 -1.4999 0.0 0
M  V30 END ATOM
M  V30 BEGIN BOND
M  V30 1 2 1 2
M  V30 2 1 2 3
M  V30 3 1 4 2
M  V30 4 1 5 3 CFG=1
M  V30 5 1 4 6 CFG=3
M  V30 6 1 4 7
M  V30 7 1 5 8
M  V30 8 1 5 9
M  V30 9 1 6 10
M  V30 10 1 7 11
M  V30 11 2 8 12
M  V30 12 1 13 8
M  V30 13 1 9 14
M  V30 14 2 10 15
M  V30 15 1 16 10
M  V30 16 2 11 17
M  V30 17 1 11 18
M  V30 18 1 13 19
M  V30 19 1 13 20
M  V30 20 1 13 21 CFG=3
M  V30 21 1 14 22
M  V30 22 1 14 23
M  V30 23 1 16 24 CFG=3
M  V30 24 1 16 25
M  V30 25 1 17 26
M  V30 26 2 18 27
M  V30 27 1 24 28
M  V30 28 1 25 29
M  V30 29 2 26 30
M  V30 30 2 28 31
M  V30 31 1 32 28
M  V30 32 1 29 33
M  V30 33 1 29 34
M  V30 34 1 32 35 CFG=1
M  V30 35 1 32 36
M  V30 36 1 35 37
M  V30 37 1 36 38
M  V30 38 2 37 39
M  V30 39 1 37 40
M  V30 40 1 38 41
M  V30 41 1 40 42
M  V30 42 2 41 43
M  V30 43 1 41 44
M  V30 44 1 42 45
M  V30 45 1 42 46
M  V30 46 1 43 47
M  V30 47 2 44 48
M  V30 48 1 45 49
M  V30 49 1 46 50
M  V30 50 2 47 51
M  V30 51 1 49 52
M  V30 52 1 19 20
M  V30 53 1 27 30
M  V30 54 1 48 51
M  V30 55 1 50 52
M  V30 END BOND
M  V30 BEGIN COLLECTION
M  V30 MDLV30/STERAC1 ATOMS=(5 4 5 13 16 32)
M  V30 END COLLECTION
M  V30 END CTAB
M  END
>  <Molecule Name>
_c001

>  <status>
-

>  <cas>
868540-17-4

>  <name>
CARFILZOMIB

>  <ID>
1580

>  <Smiles>
CC(C)C[C@H](C([C@@]1(C)OC1)=O)NC([C@@H](Cc1ccccc1)NC([C@@H](CC(C)C)NC([C@@H](CCc1ccccc1)NC(CN1CCOCC1)=O)=O)=O)=O

$$$$
_c001
Actelion Java MolfileCreator 2.0

  0  0  0  0  0  0              0 V3000
M  V30 BEGIN CTAB
M  V30 COUNTS 101 106 0 0 0
M  V30 BEGIN ATOM
M  V30 1 S 3.7443 1.8991 0.0 0
M  V30 2 S 3.7817 2.8984 0.0 0
M  V30 3 C 3.9302 0.9165 0.0 0
M  V30 4 C 4.0405 3.8643 0.0 0
M  V30 5 C 4.3301 0.0 0.0 0 CFG=2
M  V30 6 C 8.9531 7.9957 0.0 0 CFG=1
M  V30 7 N 4.9239 -0.8045 0.0 0
M  V30 8 C 3.4641 -0.5 0.0 0
M  V30 9 N 8.0918 8.3207 0.0 0
M  V30 10 C 9.1873 6.9547 0.0 0
M  V30 11 C 5.6819 -1.4568 0.0 0
M  V30 12 O 3.4641 -1.5 0.0 0
M  V30 13 N 2.598 0.0 0.0 0
M  V30 14 C 7.2408 7.7955 0.0 0
M  V30 15 O 8.089 6.5319 0.0 0
M  V30 16 N 9.8758 6.4893 0.0 0
M  V30 17 O 5.1185 -2.2831 0.0 0
M  V30 18 C 6.566 -1.9241 0.0 0
M  V30 19 C 1.732 -0.5 0.0 0 CFG=2
M  V30 20 O 6.3605 8.27 0.0 0
M  V30 21 C 7.1622 6.9241 0.0 0 CFG=1
M  V30 22 C 9.9109 5.3726 0.0 0 CFG=1
M  V30 23 N 7.5319 -2.1829 0.0 0
M  V30 24 C 1.732 -1.5 0.0 0
M  V30 25 C 0.866 0.0 0.0 0
M  V30 26 N 6.3807 6.3182 0.0 0
M  V30 27 C 8.1896 6.1867 0.0 0
M  V30 28 C 14.1398 9.7895 0.0 0
M  V30 29 C 10.7911 4.8981 0.0 0
M  V30 30 C 8.5312 -2.2203 0.0 0
M  V30 31 O 0.866 -2.0 0.0 0
M  V30 32 O 2.598 -1.9999 0.0 0 CHG=-1
M  V30 33 C 0.0 -0.5 0.0 0
M  V30 34 C 6.474 5.2393 0.0 0
M  V30 35 C 8.9471 6.7264 0.0 0
M  V30 36 O 14.2142 10.7867 0.0 0
M  V30 37 N 14.7165 8.9726 0.0 0
M  V30 38 S 10.8204 3.8986 0.0 0
M  V30 39 O 8.6059 -3.2175 0.0 0
M  V30 40 C 9.5138 -2.0344 0.0 0 CFG=1
M  V30 41 C -0.866 0.0 0.0 0
M  V30 42 C 0.0 -1.4999 0.0 0
M  V30 43 O 5.6626 4.6652 0.0 0
M  V30 44 C 7.3285 4.7968 0.0 0 CFG=1
M  V30 45 C 9.8816 6.1222 0.0 0
M  V30 46 C 8.8541 7.6842 0.0 0
M  V30 47 C 14.3358 8.0479 0.0 0 CFG=2
M  V30 48 S 11.7007 3.4241 0.0 0
M  V30 49 N 10.4303 -1.6345 0.0 0
M  V30 50 C 9.8085 -2.99 0.0 0 CFG=2
M  V30 51 C -1.732 -0.4999 0.0 0
M  V30 52 C -0.866 -1.9999 0.0 0
M  V30 53 N 7.3578 3.7973 0.0 0
M  V30 54 C 8.1795 5.3219 0.0 0
M  V30 55 C 10.7185 6.9108 0.0 0
M  V30 56 C 9.8231 8.3713 0.0 0
M  V30 57 C 14.9788 7.2821 0.0 0
M  V30 58 C 13.3476 7.8946 0.0 0
M  V30 59 C 11.7299 2.4245 0.0 0
M  V30 60 C 11.2349 -1.0407 0.0 0
M  V30 61 O 9.1284 -3.723 0.0 0
M  V30 62 C 10.7835 -3.2125 0.0 0
M  V30 63 C -1.732 -1.4999 0.0 0
M  V30 64 C 8.3124 3.1048 0.0 0
M  V30 65 C 9.0598 4.8475 0.0 0
M  V30 66 C 10.7034 7.8969 0.0 0
M  V30 67 O 14.6569 6.3353 0.0 0
M  V30 68 N 15.9554 7.4971 0.0 0
M  V30 69 C 12.9863 6.9621 0.0 0
M  V30 70 C 10.89 1.9325 0.0 0 CFG=2
M  V30 71 O 11.8589 -1.8221 0.0 0
M  V30 72 C 15.2434 2.418 0.0 0 CFG=1
M  V30 73 O -2.598 -1.9999 0.0 0
M  V30 74 O 9.1873 4.0676 0.0 0
M  V30 75 C 8.2673 2.3232 0.0 0 CFG=1
M  V30 76 C 9.2088 3.6954 0.0 0
M  V30 77 O 11.5544 8.422 0.0 0
M  V30 78 C 16.6603 6.7878 0.0 0 CFG=2
M  V30 79 C 16.4122 8.3867 0.0 0
M  V30 80 O 13.6132 6.183 0.0 0
M  V30 81 N 11.9981 6.8088 0.0 0
M  V30 82 N 10.9033 0.8862 0.0 0
M  V30 83 C 9.9986 2.3739 0.0 0
M  V30 84 N 16.1161 2.9062 0.0 0
M  V30 85 C 14.3636 2.8934 0.0 0
M  V30 86 N 9.0949 1.692 0.0 0
M  V30 87 C 12.7895 0.8036 0.0 0
M  V30 88 O 8.0831 3.3116 0.0 0
M  V30 89 O 9.8697 3.6027 0.0 0 CHG=-1
M  V30 90 C 16.4391 5.8126 0.0 0
M  V30 91 C 17.5527 7.239 0.0 0
M  V30 92 C 17.3994 8.2272 0.0 0
M  V30 93 O 10.0192 3.2588 0.0 0
M  V30 94 C 16.1716 3.9047 0.0 0
M  V30 95 S 13.5347 2.3339 0.0 0
M  V30 96 S 13.5574 1.4434 0.0 0
M  V30 97 O 17.1871 5.1489 0.0 0
M  V30 98 N 15.4971 5.4768 0.0 0
M  V30 99 O 17.0733 4.337 0.0 0
M  V30 100 C 15.3583 4.4865 0.0 0 CFG=1
M  V30 101 C 14.4393 4.0922 0.0 0
M  V30 END ATOM
M  V30 BEGIN BOND
M  V30 1 1 1 2
M  V30 2 1 1 3
M  V30 3 1 2 4
M  V30 4 1 5 3
M  V30 5 1 6 4
M  V30 6 1 5 7
M  V30 7 1 5 8 CFG=3
M  V30 8 1 6 9 CFG=1
M  V30 9 1 6 10
M  V30 10 1 7 11
M  V30 11 2 8 12
M  V30 12 1 8 13
M  V30 13 1 9 14
M  V30 14 2 10 15
M  V30 15 1 10 16
M  V30 16 2 11 17
M  V30 17 1 11 18
M  V30 18 1 19 13 CFG=3
M  V30 19 2 14 20
M  V30 20 1 21 14
M  V30 21 1 22 16 CFG=1
M  V30 22 1 18 23
M  V30 23 1 19 24
M  V30 24 1 19 25
M  V30 25 1 21 26
M  V30 26 1 21 27 CFG=3
M  V30 27 1 22 28
M  V30 28 1 22 29
M  V30 29 1 23 30
M  V30 30 2 24 31
M  V30 31 1 24 32
M  V30 32 1 25 33
M  V30 33 1 26 34
M  V30 34 1 27 35
M  V30 35 2 28 36
M  V30 36 1 28 37
M  V30 37 1 29 38
M  V30 38 2 30 39
M  V30 39 1 40 30
M  V30 40 2 33 41
M  V30 41 1 33 42
M  V30 42 2 34 43
M  V30 43 1 44 34
M  V30 44 2 35 45
M  V30 45 1 35 46
M  V30 46 1 47 37
M  V30 47 1 38 48
M  V30 48 1 40 49 CFG=1
M  V30 49 1 50 40
M  V30 50 1 41 51
M  V30 51 2 42 52
M  V30 52 1 44 53
M  V30 53 1 44 54 CFG=3
M  V30 54 1 45 55
M  V30 55 2 46 56
M  V30 56 1 47 57
M  V30 57 1 47 58 CFG=3
M  V30 58 1 48 59
M  V30 59 1 49 60
M  V30 60 1 50 61 CFG=1
M  V30 61 1 50 62
M  V30 62 2 51 63
M  V30 63 1 53 64
M  V30 64 1 54 65
M  V30 65 2 55 66
M  V30 66 2 57 67
M  V30 67 1 57 68
M  V30 68 1 58 69
M  V30 69 1 70 59
M  V30 70 2 60 71
M  V30 71 1 72 60
M  V30 72 1 63 73
M  V30 73 2 64 74
M  V30 74 1 75 64
M  V30 75 1 65 76
M  V30 76 1 66 77
M  V30 77 1 78 68 CFG=1
M  V30 78 1 68 79
M  V30 79 2 69 80
M  V30 80 1 69 81
M  V30 81 1 70 82 CFG=3
M  V30 82 1 70 83
M  V30 83 1 72 84 CFG=3
M  V30 84 1 72 85
M  V30 85 1 75 86 CFG=3
M  V30 86 1 75 87
M  V30 87 2 76 88
M  V30 88 1 76 89
M  V30 89 1 78 90
M  V30 90 1 78 91
M  V30 91 1 79 92
M  V30 92 2 83 93
M  V30 93 1 84 94
M  V30 94 1 85 95
M  V30 95 1 87 96
M  V30 96 2 90 97
M  V30 97 1 90 98
M  V30 98 2 94 99
M  V30 99 1 100 94
M  V30 100 1 100 101 CFG=3
M  V30 101 1 52 63
M  V30 102 1 56 66
M  V30 103 1 83 86
M  V30 104 1 91 92
M  V30 105 1 95 96
M  V30 106 1 98 100
M  V30 END BOND
M  V30 BEGIN COLLECTION
M  V30 MDLV30/STERAC1 ATOMS=(14 5 6 19 21 22 40 44 47 50 70 72 75 78 100)
M  V30 END COLLECTION
M  V30 END CTAB
M  END
>  <Molecule Name>
_c001

>  <status>
-

>  <cas>
851199-59-2

>  <name>
LINACLOTIDE

>  <ID>
1581

>  <Smiles>
C[C@H]([C@@H](C(NCC(N[C@@H](CSSC[C@H](C(N[C@H](CSSC[C@@H](C(N[C@@H](CSSC[C@@H]1NC([C@H](C)NC([C@H](CCC2)N2C([C@H](CC(N)=O)N2)=O)=O)=O)C(N[C@@H](CCC([O-])=O)C(N[C@H]3Cc(cc4)ccc4O)=O)=O)=O)N)C2=O)=O)NC3=O)C(N[C@@H](Cc(cc2)ccc2O)C([O-])=O)=O)=O)=O)NC1=O)O

$$$$
_c001
Actelion Java MolfileCreator 2.0

  0  0  0  0  0  0              0 V3000
M  V30 BEGIN CTAB
M  V30 COUNTS 89 93 0 0 0
M  V30 BEGIN ATOM
M  V30 1 S 7.7154 -2.2802 0.0 0
M  V30 2 S 6.818 -2.7214 0.0 0
M  V30 3 C 8.4922 -1.6504 0.0 0
M  V30 4 C 5.845 -2.9519 0.0 0
M  V30 5 C 9.1093 -0.8635 0.0 0 CFG=2
M  V30 6 C 0.0109 -0.3451 0.0 0 CFG=1
M  V30 7 N 9.5358 0.0409 0.0 0
M  V30 8 C 9.9603 -1.3886 0.0 0
M  V30 9 N 0.0 -1.4999 0.0 0
M  V30 10 C 0.6531 0.0693 0.0 0
M  V30 11 C 9.7504 1.0176 0.0 0
M  V30 12 O 9.9311 -2.3882 0.0 0
M  V30 13 O 10.8406 -0.9141 0.0 0 CHG=-1
M  V30 14 C 0.866 -2.0 0.0 0
M  V30 15 O 1.5389 -0.6312 0.0 0
M  V30 16 N 0.734 0.9295 0.0 0
M  V30 17 O 10.745 0.9137 0.0 0
M  V30 18 C 9.7422 2.0176 0.0 0
M  V30 19 O 0.866 -3.0 0.0 0
M  V30 20 C 1.7019 -1.5674 0.0 0 CFG=1
M  V30 21 C 1.732 1.4999 0.0 0 CFG=1
M  V30 22 N 9.5118 2.9906 0.0 0
M  V30 23 N 2.5745 -2.0561 0.0 0
M  V30 24 C 1.8422 -0.425 0.0 0
M  V30 25 C -4.1625 3.127 0.0 0
M  V30 26 C 1.732 2.4999 0.0 0
M  V30 27 C 9.0705 3.888 0.0 0
M  V30 28 C 3.4799 -1.4621 0.0 0
M  V30 29 C 0.9971 0.0267 0.0 0
M  V30 30 O -5.0756 2.7193 0.0 0
M  V30 31 N -3.717 4.0222 0.0 0
M  V30 32 S 2.598 2.9999 0.0 0
M  V30 33 O 9.9129 4.427 0.0 0
M  V30 34 C 8.4407 4.6648 0.0 0 CFG=1
M  V30 35 O 4.3703 -1.904 0.0 0
M  V30 36 C 3.4641 -0.5 0.0 0 CFG=1
M  V30 37 C 0.9058 1.1921 0.0 0
M  V30 38 C 0.0883 -0.6465 0.0 0
M  V30 39 C -2.7223 4.1258 0.0 0 CFG=2
M  V30 40 S 2.598 3.9999 0.0 0
M  V30 41 N 7.6538 5.2819 0.0 0
M  V30 42 C 9.142 5.3776 0.0 0 CFG=2
M  V30 43 N 4.3301 0.0 0.0 0
M  V30 44 C 2.598 0.0 0.0 0
M  V30 45 C -0.0052 1.4811 0.0 0
M  V30 46 C -0.866 0.0 0.0 0
M  V30 47 C -2.3533 5.0552 0.0 0
M  V30 48 C -2.1185 3.3287 0.0 0
M  V30 49 C 3.4641 4.4999 0.0 0
M  V30 50 C 6.7493 5.7084 0.0 0
M  V30 51 O 10.11 5.1267 0.0 0
M  V30 52 C 8.8753 6.3414 0.0 0
M  V30 53 C 4.4035 1.2075 0.0 0
M  V30 54 C 2.598 1.0 0.0 0
M  V30 55 C -0.866 0.9999 0.0 0
M  V30 56 O -1.3671 5.221 0.0 0
M  V30 57 N -3.006 5.8128 0.0 0
M  V30 58 C -1.1263 3.453 0.0 0
M  V30 59 C 4.2957 3.994 0.0 0 CFG=2
M  V30 60 O 7.1411 6.6284 0.0 0
M  V30 61 C 1.8028 7.5959 0.0 0 CFG=1
M  V30 62 O 3.278 1.6167 0.0 0
M  V30 63 C 5.1961 1.5 0.0 0 CFG=1
M  V30 64 C 3.3393 1.2871 0.0 0
M  V30 65 O -1.732 1.4999 0.0 0
M  V30 66 C -2.716 6.7699 0.0 0 CFG=2
M  V30 67 C -4.0058 5.7929 0.0 0
M  V30 68 O -0.7379 4.3745 0.0 0
M  V30 69 N -0.5225 2.6559 0.0 0
M  V30 70 N 5.2104 4.5022 0.0 0
M  V30 71 C 4.3301 3.0 0.0 0
M  V30 72 N 0.959 8.1325 0.0 0
M  V30 73 C 1.8018 6.5959 0.0 0
M  V30 74 N 5.359 2.5279 0.0 0
M  V30 75 C 4.3882 6.2018 0.0 0
M  V30 76 O 4.5168 0.8706 0.0 0
M  V30 77 O 3.2404 2.3881 0.0 0 CHG=-1
M  V30 78 C -1.7526 7.0378 0.0 0
M  V30 79 C -3.5366 7.3414 0.0 0
M  V30 80 C -4.3337 6.7376 0.0 0
M  V30 81 O 3.5759 2.5559 0.0 0
M  V30 82 C 0.0537 7.7076 0.0 0
M  V30 83 S 2.6875 6.1317 0.0 0
M  V30 84 S 3.4606 6.5741 0.0 0
M  V30 85 O -1.5233 8.0112 0.0 0
M  V30 86 N -1.0101 6.368 0.0 0
M  V30 87 O -0.7546 8.2962 0.0 0
M  V30 88 C -0.0725 6.7156 0.0 0 CFG=1
M  V30 89 C 0.7105 6.0937 0.0 0
M  V30 END ATOM
M  V30 BEGIN BOND
M  V30 1 1 1 2
M  V30 2 1 1 3
M  V30 3 1 2 4
M  V30 4 1 5 3
M  V30 5 1 6 4
M  V30 6 1 5 7
M  V30 7 1 5 8 CFG=3
M  V30 8 1 6 9 CFG=1
M  V30 9 1 6 10
M  V30 10 1 7 11
M  V30 11 2 8 12
M  V30 12 1 8 13
M  V30 13 1 9 14
M  V30 14 2 10 15
M  V30 15 1 10 16
M  V30 16 2 11 17
M  V30 17 1 11 18
M  V30 18 2 14 19
M  V30 19 1 20 14
M  V30 20 1 21 16 CFG=1
M  V30 21 1 18 22
M  V30 22 1 20 23
M  V30 23 1 20 24 CFG=3
M  V30 24 1 21 25
M  V30 25 1 21 26
M  V30 26 1 22 27
M  V30 27 1 23 28
M  V30 28 1 24 29
M  V30 29 2 25 30
M  V30 30 1 25 31
M  V30 31 1 26 32
M  V30 32 2 27 33
M  V30 33 1 34 27
M  V30 34 2 28 35
M  V30 35 1 36 28
M  V30 36 2 29 37
M  V30 37 1 29 38
M  V30 38 1 39 31
M  V30 39 1 32 40
M  V30 40 1 34 41 CFG=1
M  V30 41 1 42 34
M  V30 42 1 36 43
M  V30 43 1 36 44 CFG=3
M  V30 44 1 37 45
M  V30 45 2 38 46
M  V30 46 1 39 47
M  V30 47 1 39 48 CFG=3
M  V30 48 1 40 49
M  V30 49 1 41 50
M  V30 50 1 42 51 CFG=1
M  V30 51 1 42 52
M  V30 52 1 43 53
M  V30 53 1 44 54
M  V30 54 2 45 55
M  V30 55 2 47 56
M  V30 56 1 47 57
M  V30 57 1 48 58
M  V30 58 1 59 49
M  V30 59 2 50 60
M  V30 60 1 61 50
M  V30 61 2 53 62
M  V30 62 1 63 53
M  V30 63 1 54 64
M  V30 64 1 55 65
M  V30 65 1 66 57 CFG=1
M  V30 66 1 57 67
M  V30 67 2 58 68
M  V30 68 1 58 69
M  V30 69 1 59 70 CFG=3
M  V30 70 1 59 71
M  V30 71 1 61 72 CFG=3
M  V30 72 1 61 73
M  V30 73 1 63 74 CFG=3
M  V30 74 1 63 75
M  V30 75 2 64 76
M  V30 76 1 64 77
M  V30 77 1 66 78
M  V30 78 1 66 79
M  V30 79 1 67 80
M  V30 80 2 71 81
M  V30 81 1 72 82
M  V30 82 1 73 83
M  V30 83 1 75 84
M  V30 84 2 78 85
M  V30 85 1 78 86
M  V30 86 2 82 87
M  V30 87 1 88 82
M  V30 88 1 88 89 CFG=3
M  V30 89 1 46 55
M  V30 90 1 71 74
M  V30 91 1 79 80
M  V30 92 1 83 84
M  V30 93 1 86 88
M  V30 END BOND
M  V30 BEGIN COLLECTION
M  V30 MDLV30/STERAC1 ATOMS=(13 5 6 20 21 34 36 39 42 59 61 63 66 88)
M  V30 END COLLECTION
M  V30 END CTAB
M  END
>  <Molecule Name>
_c001

>  <status>
-

>  <cas>
851199-59-2

>  <name>
M LINACLOTIDE

>  <ID>
1582

>  <Smiles>
C[C@H]([C@@H](C(NCC(N[C@@H](CSSC[C@H](C(N[C@H](CSSC[C@@H](C(N[C@@H](CSSC[C@@H]1NC([C@H](C)NC([C@H](CCC2)N2C([C@H](CC(N)=O)N2)=O)=O)=O)C(N[C@@H](CCC([O-])=O)C(N[C@H]3Cc(cc4)ccc4O)=O)=O)=O)N)C2=O)=O)NC3=O)C([O-])=O)=O)=O)NC1=O)O

$$$$
_c001
Actelion Java MolfileCreator 2.0

  0  0  0  0  0  0              0 V3000
M  V30 BEGIN CTAB
M  V30 COUNTS 28 30 0 0 0
M  V30 BEGIN ATOM
M  V30 1 S 8.1602 -6.0388 0.0 0
M  V30 2 C 9.1602 -6.0388 0.0 0
M  V30 3 C 7.8512 -5.0877 0.0 0
M  V30 4 N 9.4692 -5.0877 0.0 0
M  V30 5 N 9.748 -6.8478 0.0 0
M  V30 6 C 8.6602 -4.5 0.0 0
M  V30 7 C 8.6602 -3.5 0.0 0
M  V30 8 C 7.7942 -3.0 0.0 0
M  V30 9 O 6.9282 -3.5 0.0 0
M  V30 10 N 7.7942 -2.0 0.0 0
M  V30 11 C 6.9282 -1.5 0.0 0
M  V30 12 C 6.9282 -0.5 0.0 0
M  V30 13 C 6.0621 -2.0 0.0 0
M  V30 14 C 6.0621 0.0 0.0 0
M  V30 15 C 5.1961 -1.5 0.0 0
M  V30 16 C 5.1961 -0.5 0.0 0
M  V30 17 C 4.3301 0.0 0.0 0
M  V30 18 C 3.4641 -0.5 0.0 0
M  V30 19 N 2.598 0.0 0.0 0
M  V30 20 C 1.732 -0.5 0.0 0
M  V30 21 C 0.866 0.0 0.0 0 CFG=2
M  V30 22 O 0.866 1.0 0.0 0
M  V30 23 C 0.0 -0.5 0.0 0
M  V30 24 C -0.866 0.0 0.0 0
M  V30 25 C 0.0 -1.4999 0.0 0
M  V30 26 C -1.732 -0.4999 0.0 0
M  V30 27 C -0.866 -1.9999 0.0 0
M  V30 28 C -1.732 -1.4999 0.0 0
M  V30 END ATOM
M  V30 BEGIN BOND
M  V30 1 1 1 2
M  V30 2 1 1 3
M  V30 3 2 2 4
M  V30 4 1 2 5
M  V30 5 2 3 6
M  V30 6 1 6 7
M  V30 7 1 7 8
M  V30 8 2 8 9
M  V30 9 1 8 10
M  V30 10 1 10 11
M  V30 11 2 11 12
M  V30 12 1 11 13
M  V30 13 1 12 14
M  V30 14 2 13 15
M  V30 15 2 14 16
M  V30 16 1 16 17
M  V30 17 1 17 18
M  V30 18 1 18 19
M  V30 19 1 19 20
M  V30 20 1 21 20
M  V30 21 1 21 22 CFG=1
M  V30 22 1 21 23
M  V30 23 2 23 24
M  V30 24 1 23 25
M  V30 25 1 24 26
M  V30 26 2 25 27
M  V30 27 2 26 28
M  V30 28 1 4 6
M  V30 29 1 15 16
M  V30 30 1 27 28
M  V30 END BOND
M  V30 BEGIN COLLECTION
M  V30 MDLV30/STERAC1 ATOMS=(1 21)
M  V30 END COLLECTION
M  V30 END CTAB
M  END
>  <Molecule Name>
_c001

>  <status>
-

>  <cas>
223673-61-8

>  <name>
MIRABEGRON

>  <ID>
1583

>  <Smiles>
Nc1nc(CC(Nc2ccc(CCNCC(c3ccccc3)O)cc2)=O)cs1

$$$$
_c001
Actelion Java MolfileCreator 2.0

  0  0  0  0  0  0              0 V3000
M  V30 BEGIN CTAB
M  V30 COUNTS 34 37 0 0 0
M  V30 BEGIN ATOM
M  V30 1 Cl 0.0 -4.4999 0.0 0
M  V30 2 C 0.0 -3.4999 0.0 0
M  V30 3 C -0.866 -2.9999 0.0 0
M  V30 4 C 0.866 -3.0 0.0 0
M  V30 5 O -1.732 -3.5 0.0 0
M  V30 6 C -0.866 -1.9999 0.0 0
M  V30 7 C 0.866 -1.9999 0.0 0
M  V30 8 C -2.598 -3.0 0.0 0
M  V30 9 C 0.0 -1.4999 0.0 0
M  V30 10 C 1.732 -1.4999 0.0 0
M  V30 11 N 2.598 -1.9999 0.0 0
M  V30 12 C 3.4641 -1.4999 0.0 0
M  V30 13 N 4.3301 -1.9999 0.0 0
M  V30 14 C 3.4641 -0.5 0.0 0
M  V30 15 C 5.1961 -1.4999 0.0 0
M  V30 16 C 2.598 0.0 0.0 0
M  V30 17 C 4.3301 0.0 0.0 0
M  V30 18 N 5.1961 -0.4999 0.0 0
M  V30 19 N 6.0621 -1.9999 0.0 0
M  V30 20 O 1.732 -0.5 0.0 0
M  V30 21 N 2.598 0.9999 0.0 0
M  V30 22 C 6.1667 -2.9945 0.0 0 CFG=2
M  V30 23 C 6.9757 -1.5932 0.0 0
M  V30 24 C 1.732 1.4999 0.0 0
M  V30 25 C 7.1448 -3.2024 0.0 0
M  V30 26 C 5.4235 -3.6636 0.0 0
M  V30 27 C 7.6448 -2.3364 0.0 0
M  V30 28 C 1.732 2.4999 0.0 0
M  V30 29 O 5.6314 -4.6418 0.0 0
M  V30 30 N 0.866 2.9999 0.0 0
M  V30 31 N 2.598 3.0 0.0 0
M  V30 32 C 0.866 3.9999 0.0 0
M  V30 33 C 2.598 4.0 0.0 0
M  V30 34 C 1.732 4.4999 0.0 0
M  V30 END ATOM
M  V30 BEGIN BOND
M  V30 1 1 1 2
M  V30 2 2 2 3
M  V30 3 1 2 4
M  V30 4 1 3 5
M  V30 5 1 3 6
M  V30 6 2 4 7
M  V30 7 1 5 8
M  V30 8 2 6 9
M  V30 9 1 7 10
M  V30 10 1 10 11
M  V30 11 1 11 12
M  V30 12 2 12 13
M  V30 13 1 12 14
M  V30 14 1 13 15
M  V30 15 1 14 16
M  V30 16 2 14 17
M  V30 17 2 15 18
M  V30 18 1 15 19
M  V30 19 2 16 20
M  V30 20 1 16 21
M  V30 21 1 22 19
M  V30 22 1 19 23
M  V30 23 1 21 24
M  V30 24 1 22 25
M  V30 25 1 22 26 CFG=3
M  V30 26 1 23 27
M  V30 27 1 24 28
M  V30 28 1 26 29
M  V30 29 2 28 30
M  V30 30 1 28 31
M  V30 31 1 30 32
M  V30 32 2 31 33
M  V30 33 2 32 34
M  V30 34 1 7 9
M  V30 35 1 17 18
M  V30 36 1 25 27
M  V30 37 1 33 34
M  V30 END BOND
M  V30 BEGIN COLLECTION
M  V30 MDLV30/STERAC1 ATOMS=(1 22)
M  V30 END COLLECTION
M  V30 END CTAB
M  END
>  <Molecule Name>
_c001

>  <status>
-

>  <cas>
330784-47-9

>  <name>
AVANAFIL

>  <ID>
1584

>  <Smiles>
COc(ccc(CNc1nc(N2C(CO)CCC2)ncc1C(NCc1ncccn1)=O)c1)c1Cl

$$$$
_c001
Actelion Java MolfileCreator 2.0

  0  0  0  0  0  0              0 V3000
M  V30 BEGIN CTAB
M  V30 COUNTS 33 35 0 0 0
M  V30 BEGIN ATOM
M  V30 1 Cl 6.0621 -1.9999 0.0 0
M  V30 2 C 5.1961 -1.4999 0.0 0
M  V30 3 C 5.1961 -0.5 0.0 0
M  V30 4 C 4.3301 -1.9999 0.0 0
M  V30 5 C 4.3301 0.0 0.0 0
M  V30 6 C 6.0621 0.0 0.0 0
M  V30 7 C 3.4641 -1.5 0.0 0
M  V30 8 C 3.4641 -0.5 0.0 0
M  V30 9 F 5.5621 0.866 0.0 0
M  V30 10 F 6.9282 0.4999 0.0 0
M  V30 11 F 6.5621 -0.866 0.0 0
M  V30 12 N 2.598 0.0 0.0 0
M  V30 13 C 1.732 -0.5 0.0 0
M  V30 14 O 1.732 -1.5 0.0 0
M  V30 15 N 0.866 0.0 0.0 0
M  V30 16 C 0.0 -0.5 0.0 0
M  V30 17 C -0.866 0.0 0.0 0
M  V30 18 C 0.0 -1.4999 0.0 0
M  V30 19 F -0.866 1.0 0.0 0
M  V30 20 C -1.732 -0.4999 0.0 0
M  V30 21 C -0.866 -1.9999 0.0 0
M  V30 22 C -1.732 -1.4999 0.0 0
M  V30 23 O -2.598 -1.9999 0.0 0
M  V30 24 C -2.598 -2.9999 0.0 0
M  V30 25 C -3.4641 -3.4999 0.0 0
M  V30 26 C -1.732 -3.4999 0.0 0
M  V30 27 C -3.4641 -4.4999 0.0 0
M  V30 28 C -1.732 -4.5 0.0 0
M  V30 29 N -2.598 -4.9999 0.0 0
M  V30 30 C -4.3301 -4.9999 0.0 0
M  V30 31 O -4.3301 -5.9999 0.0 0
M  V30 32 N -5.1961 -4.4999 0.0 0
M  V30 33 C -6.0621 -4.9999 0.0 0
M  V30 END ATOM
M  V30 BEGIN BOND
M  V30 1 1 1 2
M  V30 2 2 2 3
M  V30 3 1 2 4
M  V30 4 1 3 5
M  V30 5 1 3 6
M  V30 6 2 4 7
M  V30 7 2 5 8
M  V30 8 1 6 9
M  V30 9 1 6 10
M  V30 10 1 6 11
M  V30 11 1 8 12
M  V30 12 1 12 13
M  V30 13 2 13 14
M  V30 14 1 13 15
M  V30 15 1 15 16
M  V30 16 2 16 17
M  V30 17 1 16 18
M  V30 18 1 17 19
M  V30 19 1 17 20
M  V30 20 2 18 21
M  V30 21 2 20 22
M  V30 22 1 22 23
M  V30 23 1 23 24
M  V30 24 2 24 25
M  V30 25 1 24 26
M  V30 26 1 25 27
M  V30 27 2 26 28
M  V30 28 2 27 29
M  V30 29 1 27 30
M  V30 30 2 30 31
M  V30 31 1 30 32
M  V30 32 1 32 33
M  V30 33 1 7 8
M  V30 34 1 21 22
M  V30 35 1 28 29
M  V30 END BOND
M  V30 END CTAB
M  END
>  <Molecule Name>
_c001

>  <status>
-

>  <cas>
755037-03-7

>  <name>
REGORAFENIB

>  <ID>
1585

>  <Smiles>
CNC(c1nccc(Oc(cc2)cc(F)c2NC(Nc(cc2)cc(C(F)(F)F)c2Cl)=O)c1)=O

$$$$
_c001
Actelion Java MolfileCreator 2.0

  0  0  0  0  0  0              0 V3000
M  V30 BEGIN CTAB
M  V30 COUNTS 31 33 0 0 0
M  V30 BEGIN ATOM
M  V30 1 Cl 6.9282 -6.4999 0.0 0
M  V30 2 C 6.0621 -5.9999 0.0 0
M  V30 3 C 6.0621 -4.9999 0.0 0
M  V30 4 C 5.1961 -6.4999 0.0 0
M  V30 5 F 6.9282 -4.4999 0.0 0
M  V30 6 C 5.1961 -4.4999 0.0 0
M  V30 7 C 4.3301 -5.9999 0.0 0
M  V30 8 C 4.3301 -4.9999 0.0 0
M  V30 9 C 5.1961 -3.4999 0.0 0
M  V30 10 C 4.3301 -2.9999 0.0 0
M  V30 11 C 4.3301 -1.9999 0.0 0
M  V30 12 C 3.4641 -3.4999 0.0 0
M  V30 13 O 5.1961 -1.4999 0.0 0
M  V30 14 C 3.4641 -1.4999 0.0 0
M  V30 15 C 2.598 -2.9999 0.0 0
M  V30 16 C 5.1961 -0.4999 0.0 0
M  V30 17 C 2.598 -1.9999 0.0 0
M  V30 18 C 1.732 -3.4999 0.0 0
M  V30 19 N 1.732 -1.5 0.0 0
M  V30 20 O 1.732 -4.4999 0.0 0
M  V30 21 C 0.866 -2.9999 0.0 0
M  V30 22 C 0.866 -1.9999 0.0 0
M  V30 23 C 1.732 -0.5 0.0 0 CFG=2
M  V30 24 C 0.0 -3.5 0.0 0
M  V30 25 C 2.598 0.0 0.0 0
M  V30 26 C 0.866 0.0 0.0 0
M  V30 27 O -0.866 -3.0 0.0 0
M  V30 28 O 0.0 -4.4999 0.0 0 CHG=-1
M  V30 29 C 3.4641 -0.5 0.0 0
M  V30 30 C 2.598 1.0 0.0 0
M  V30 31 O 0.0 -0.5 0.0 0
M  V30 END ATOM
M  V30 BEGIN BOND
M  V30 1 1 1 2
M  V30 2 2 2 3
M  V30 3 1 2 4
M  V30 4 1 3 5
M  V30 5 1 3 6
M  V30 6 2 4 7
M  V30 7 2 6 8
M  V30 8 1 6 9
M  V30 9 1 9 10
M  V30 10 2 10 11
M  V30 11 1 10 12
M  V30 12 1 11 13
M  V30 13 1 11 14
M  V30 14 2 12 15
M  V30 15 1 13 16
M  V30 16 2 14 17
M  V30 17 1 15 18
M  V30 18 1 17 19
M  V30 19 2 18 20
M  V30 20 1 18 21
M  V30 21 1 19 22
M  V30 22 1 23 19 CFG=1
M  V30 23 1 21 24
M  V30 24 1 23 25
M  V30 25 1 23 26
M  V30 26 2 24 27
M  V30 27 1 24 28
M  V30 28 1 25 29
M  V30 29 1 25 30
M  V30 30 1 26 31
M  V30 31 1 7 8
M  V30 32 1 15 17
M  V30 33 2 21 22
M  V30 END BOND
M  V30 BEGIN COLLECTION
M  V30 MDLV30/STERAC1 ATOMS=(1 23)
M  V30 END COLLECTION
M  V30 END CTAB
M  END
>  <Molecule Name>
_c001

>  <status>
-

>  <cas>
697761-98-1

>  <name>
ELVITEGRAVIR

>  <ID>
1586

>  <Smiles>
CC(C)C(CO)N(C=C1C([O-])=O)c2cc(OC)c(Cc3cccc(Cl)c3F)cc2C1=O

$$$$
_c001
Actelion Java MolfileCreator 2.0

  0  0  0  0  0  0              0 V3000
M  V30 BEGIN CTAB
M  V30 COUNTS 54 58 0 0 0
M  V30 BEGIN ATOM
M  V30 1 S 22.1549 -0.1398 0.0 0
M  V30 2 C 20.7846 -0.75 0.0 0
M  V30 3 C 23.1586 -1.2546 0.0 0
M  V30 4 C 20.9414 -2.2417 0.0 0
M  V30 5 C 19.4855 0.0 0.0 0
M  V30 6 N 22.4086 -2.5536 0.0 0
M  V30 7 O 18.1865 -0.75 0.0 0
M  V30 8 C 16.8874 0.0 0.0 0
M  V30 9 O 16.8874 1.5 0.0 0
M  V30 10 N 15.5884 -0.75 0.0 0
M  V30 11 C 14.2894 0.0 0.0 0 CFG=1
M  V30 12 C 14.2894 1.5 0.0 0
M  V30 13 C 12.9903 -0.75 0.0 0
M  V30 14 C 12.9903 2.25 0.0 0
M  V30 15 C 11.6913 0.0 0.0 0
M  V30 16 C 12.9903 3.75 0.0 0
M  V30 17 C 11.6913 1.5 0.0 0
M  V30 18 C 10.3923 -0.75 0.0 0 CFG=1
M  V30 19 C 11.6913 4.5 0.0 0
M  V30 20 C 10.3923 2.25 0.0 0
M  V30 21 N 9.0932 0.0 0.0 0
M  V30 22 C 10.3923 -2.25 0.0 0
M  V30 23 C 10.3923 3.75 0.0 0
M  V30 24 C 7.7942 -0.75 0.0 0
M  V30 25 C 11.6913 -3.0 0.0 0
M  V30 26 O 7.7942 -2.25 0.0 0
M  V30 27 C 6.4951 0.0 0.0 0 CFG=1
M  V30 28 C 11.6913 -4.5 0.0 0
M  V30 29 C 12.9903 -2.25 0.0 0
M  V30 30 N 5.1961 -0.75 0.0 0
M  V30 31 C 6.4951 1.4999 0.0 0
M  V30 32 C 12.9903 -5.25 0.0 0
M  V30 33 C 14.2894 -3.0 0.0 0
M  V30 34 C 3.8971 0.0 0.0 0
M  V30 35 C 7.7942 2.2499 0.0 0
M  V30 36 C 14.2894 -4.5 0.0 0
M  V30 37 O 3.8971 1.5 0.0 0
M  V30 38 N 2.598 -0.75 0.0 0
M  V30 39 N 7.7942 3.7499 0.0 0
M  V30 40 C 1.299 0.0 0.0 0
M  V30 41 C 2.598 -2.25 0.0 0
M  V30 42 C 9.0932 4.4999 0.0 0
M  V30 43 C 6.4951 4.5 0.0 0
M  V30 44 C 0.0 -0.75 0.0 0
M  V30 45 C 9.0932 5.9999 0.0 0
M  V30 46 C 6.4951 6.0 0.0 0
M  V30 47 N -1.3703 -0.1398 0.0 0
M  V30 48 C -0.1567 -2.2417 0.0 0
M  V30 49 O 7.7942 6.7499 0.0 0
M  V30 50 C -2.374 -1.2546 0.0 0
M  V30 51 S -1.624 -2.5536 0.0 0
M  V30 52 C -3.8657 -1.0978 0.0 0
M  V30 53 C -4.4759 0.2724 0.0 0
M  V30 54 C -4.7474 -2.3113 0.0 0
M  V30 END ATOM
M  V30 BEGIN BOND
M  V30 1 1 1 2
M  V30 2 1 1 3
M  V30 3 2 2 4
M  V30 4 1 2 5
M  V30 5 2 3 6
M  V30 6 1 5 7
M  V30 7 1 7 8
M  V30 8 2 8 9
M  V30 9 1 8 10
M  V30 10 1 11 10 CFG=3
M  V30 11 1 11 12
M  V30 12 1 11 13
M  V30 13 1 12 14
M  V30 14 1 13 15
M  V30 15 2 14 16
M  V30 16 1 14 17
M  V30 17 1 18 15
M  V30 18 1 16 19
M  V30 19 2 17 20
M  V30 20 1 18 21 CFG=3
M  V30 21 1 18 22
M  V30 22 2 19 23
M  V30 23 1 21 24
M  V30 24 1 22 25
M  V30 25 2 24 26
M  V30 26 1 27 24
M  V30 27 2 25 28
M  V30 28 1 25 29
M  V30 29 1 27 30 CFG=1
M  V30 30 1 27 31
M  V30 31 1 28 32
M  V30 32 2 29 33
M  V30 33 1 30 34
M  V30 34 1 31 35
M  V30 35 2 32 36
M  V30 36 2 34 37
M  V30 37 1 34 38
M  V30 38 1 35 39
M  V30 39 1 38 40
M  V30 40 1 38 41
M  V30 41 1 39 42
M  V30 42 1 39 43
M  V30 43 1 40 44
M  V30 44 1 42 45
M  V30 45 1 43 46
M  V30 46 1 44 47
M  V30 47 2 44 48
M  V30 48 1 45 49
M  V30 49 2 47 50
M  V30 50 1 48 51
M  V30 51 1 50 52
M  V30 52 1 52 53
M  V30 53 1 52 54
M  V30 54 1 4 6
M  V30 55 1 20 23
M  V30 56 1 33 36
M  V30 57 1 46 49
M  V30 58 1 50 51
M  V30 END BOND
M  V30 BEGIN COLLECTION
M  V30 MDLV30/STERAC1 ATOMS=(3 11 18 27)
M  V30 END COLLECTION
M  V30 END CTAB
M  END
>  <Molecule Name>
_c001

>  <status>
-

>  <cas>
1004316-88-4

>  <name>
COBICISTAT

>  <ID>
1587

>  <Smiles>
CC(C)c1nc(CN(C)C(N[C@@H](CCN2CCOCC2)C(N[C@H](CC[C@H](Cc2ccccc2)NC(OCc2cncs2)=O)Cc2ccccc2)=O)=O)cs1

$$$$
_c001
Actelion Java MolfileCreator 2.0

  0  0  0  0  0  0              0 V3000
M  V30 BEGIN CTAB
M  V30 COUNTS 33 37 0 0 0
M  V30 BEGIN ATOM
M  V30 1 S 8.1377 -4.0784 0.0 0
M  V30 2 C 7.4058 -3.397 0.0 0
M  V30 3 C 7.7159 -4.985 0.0 0
M  V30 4 C 6.6569 -3.9768 0.0 0
M  V30 5 C 7.5268 -2.4044 0.0 0
M  V30 6 C 6.7233 -4.8641 0.0 0
M  V30 7 O 8.4469 -2.0128 0.0 0
M  V30 8 C 6.6066 -2.7959 0.0 0
M  V30 9 C 6.7276 -1.8033 0.0 0
M  V30 10 S 5.6952 -2.3646 0.0 0
M  V30 11 C 6.3199 -3.7234 0.0 0
M  V30 12 O 5.9135 -2.028 0.0 0
M  V30 13 O 6.8486 -0.8106 0.0 0
M  V30 14 C 4.9949 -2.9384 0.0 0
M  V30 15 C 5.3864 -3.8585 0.0 0
M  V30 16 C 6.0494 -0.2095 0.0 0 CFG=2
M  V30 17 C 6.1704 0.7831 0.0 0 CFG=2
M  V30 18 C 5.1292 -0.6011 0.0 0
M  V30 19 C 5.2705 1.3021 0.0 0
M  V30 20 C 5.0321 2.181 0.0 0
M  V30 21 N 4.3301 0.0 0.0 0 CHG=1 CFG=1
M  V30 22 C 4.58 1.0083 0.0 0
M  V30 23 C 4.112 1.7895 0.0 0
M  V30 24 C 3.4641 -0.5 0.0 0
M  V30 25 C 2.598 0.0 0.0 0
M  V30 26 C 1.732 -0.5 0.0 0
M  V30 27 O 0.866 0.0 0.0 0
M  V30 28 C 0.0 -0.5 0.0 0
M  V30 29 C -0.866 0.0 0.0 0
M  V30 30 C 0.0 -1.4999 0.0 0
M  V30 31 C -1.732 -0.4999 0.0 0
M  V30 32 C -0.866 -1.9999 0.0 0
M  V30 33 C -1.732 -1.4999 0.0 0
M  V30 END ATOM
M  V30 BEGIN BOND
M  V30 1 1 1 2
M  V30 2 1 1 3
M  V30 3 2 2 4
M  V30 4 1 2 5
M  V30 5 2 3 6
M  V30 6 1 5 7
M  V30 7 1 5 8
M  V30 8 1 5 9
M  V30 9 1 8 10
M  V30 10 2 8 11
M  V30 11 2 9 12
M  V30 12 1 9 13
M  V30 13 1 10 14
M  V30 14 1 11 15
M  V30 15 1 16 13 CFG=1
M  V30 16 1 17 16
M  V30 17 1 16 18
M  V30 18 1 17 19 CFG=1
M  V30 19 1 17 20
M  V30 20 1 21 18
M  V30 21 1 19 22
M  V30 22 1 20 23
M  V30 23 1 21 24 CFG=1
M  V30 24 1 24 25
M  V30 25 1 25 26
M  V30 26 1 26 27
M  V30 27 1 27 28
M  V30 28 2 28 29
M  V30 29 1 28 30
M  V30 30 1 29 31
M  V30 31 2 30 32
M  V30 32 2 31 33
M  V30 33 1 4 6
M  V30 34 2 14 15
M  V30 35 1 21 22
M  V30 36 1 21 23
M  V30 37 1 32 33
M  V30 END BOND
M  V30 BEGIN COLLECTION
M  V30 MDLV30/STEABS ATOMS=(2 17 21)
M  V30 MDLV30/STERAC1 ATOMS=(1 16)
M  V30 END COLLECTION
M  V30 END CTAB
M  END
>  <Molecule Name>
_c001

>  <status>
-

>  <cas>
727649-81-2

>  <name>
ACLIDINIUM

>  <ID>
1588

>  <Smiles>
OC(C(OC1[C@H](CC2)CC[N@@+]2(CCCOc2ccccc2)C1)=O)(c1cccs1)c1cccs1

$$$$
_c001
Actelion Java MolfileCreator 2.0

  0  0  0  0  0  0              0 V3000
M  V30 BEGIN CTAB
M  V30 COUNTS 23 25 0 0 0
M  V30 BEGIN ATOM
M  V30 1 O 4.3301 1.0 0.0 0
M  V30 2 C 4.3301 0.0 0.0 0
M  V30 3 N 3.4641 -0.5 0.0 0
M  V30 4 C 5.1961 -0.5 0.0 0
M  V30 5 C 2.598 0.0 0.0 0
M  V30 6 C 3.4641 -1.4999 0.0 0
M  V30 7 C 6.0621 0.0 0.0 0
M  V30 8 C 1.732 -0.5 0.0 0 CFG=2
M  V30 9 C 2.598 -2.0 0.0 0
M  V30 10 N 6.9282 0.4999 0.0 0
M  V30 11 N 0.866 0.0 0.0 0
M  V30 12 C 1.732 -1.5 0.0 0 CFG=1
M  V30 13 C 0.866 1.0 0.0 0
M  V30 14 C 0.0 -0.5 0.0 0
M  V30 15 C 0.866 -1.9999 0.0 0
M  V30 16 N 1.732 1.5 0.0 0
M  V30 17 C 0.0 1.4999 0.0 0
M  V30 18 C 1.732 2.5 0.0 0
M  V30 19 C 0.0 2.4999 0.0 0
M  V30 20 C -0.951 1.1909 0.0 0
M  V30 21 N 0.866 3.0 0.0 0
M  V30 22 N -0.951 2.809 0.0 0
M  V30 23 C -1.5388 1.9999 0.0 0
M  V30 END ATOM
M  V30 BEGIN BOND
M  V30 1 2 1 2
M  V30 2 1 2 3
M  V30 3 1 2 4
M  V30 4 1 3 5
M  V30 5 1 3 6
M  V30 6 1 4 7
M  V30 7 1 8 5
M  V30 8 1 6 9
M  V30 9 3 7 10
M  V30 10 1 8 11 CFG=1
M  V30 11 1 12 8
M  V30 12 1 11 13
M  V30 13 1 11 14
M  V30 14 1 12 15 CFG=1
M  V30 15 2 13 16
M  V30 16 1 13 17
M  V30 17 1 16 18
M  V30 18 2 17 19
M  V30 19 1 17 20
M  V30 20 2 18 21
M  V30 21 1 19 22
M  V30 22 2 20 23
M  V30 23 1 9 12
M  V30 24 1 19 21
M  V30 25 1 22 23
M  V30 END BOND
M  V30 BEGIN COLLECTION
M  V30 MDLV30/STERAC1 ATOMS=(2 8 12)
M  V30 END COLLECTION
M  V30 END CTAB
M  END
>  <Molecule Name>
_c001

>  <status>
-

>  <cas>
477600-75-2

>  <name>
TOFACITINIB

>  <ID>
1589

>  <Smiles>
C[C@H](CCN(C1)C(CC#N)=O)[C@H]1N(C)c1ncnc2c1cc[nH]2

$$$$
_c001
Actelion Java MolfileCreator 2.0

  0  0  0  0  0  0              0 V3000
M  V30 BEGIN CTAB
M  V30 COUNTS 32 34 0 0 0
M  V30 BEGIN ATOM
M  V30 1 S 9.4764 0.1726 0.0 0
M  V30 2 C 9.1645 1.6398 0.0 0
M  V30 3 N 10.1682 2.7546 0.0 0
M  V30 4 N 7.7942 2.25 0.0 0
M  V30 5 C 11.66 2.5978 0.0 0
M  V30 6 C 9.4182 4.0536 0.0 0
M  V30 7 C 6.4951 1.5 0.0 0
M  V30 8 C 7.951 3.7417 0.0 0
M  V30 9 C 12.2701 1.2275 0.0 0
M  V30 10 C 12.5417 3.8113 0.0 0
M  V30 11 O 10.0283 5.4239 0.0 0
M  V30 12 C 5.1961 2.25 0.0 0
M  V30 13 C 6.4951 0.0 0.0 0
M  V30 14 C 7.4875 5.1683 0.0 0
M  V30 15 C 6.4838 4.0536 0.0 0
M  V30 16 C 13.7619 1.0707 0.0 0
M  V30 17 C 14.0335 3.6545 0.0 0
M  V30 18 C 3.8971 1.5 0.0 0
M  V30 19 C 5.1961 -0.75 0.0 0
M  V30 20 C 14.6436 2.2842 0.0 0
M  V30 21 C 14.372 -0.2996 0.0 0
M  V30 22 F 2.598 2.25 0.0 0
M  V30 23 C 3.8971 0.0 0.0 0
M  V30 24 C 16.1353 2.1274 0.0 0
M  V30 25 F 15.7423 0.3104 0.0 0
M  V30 26 F 14.9821 -1.6699 0.0 0
M  V30 27 F 13.0017 -0.9097 0.0 0
M  V30 28 C 2.598 -0.75 0.0 0
M  V30 29 N 17.6271 1.9706 0.0 0
M  V30 30 O 2.598 -2.25 0.0 0
M  V30 31 N 1.299 0.0 0.0 0
M  V30 32 C 0.0 -0.75 0.0 0
M  V30 END ATOM
M  V30 BEGIN BOND
M  V30 1 2 1 2
M  V30 2 1 2 3
M  V30 3 1 2 4
M  V30 4 1 3 5
M  V30 5 1 3 6
M  V30 6 1 4 7
M  V30 7 1 4 8
M  V30 8 2 5 9
M  V30 9 1 5 10
M  V30 10 2 6 11
M  V30 11 2 7 12
M  V30 12 1 7 13
M  V30 13 1 8 14
M  V30 14 1 8 15
M  V30 15 1 9 16
M  V30 16 2 10 17
M  V30 17 1 12 18
M  V30 18 2 13 19
M  V30 19 2 16 20
M  V30 20 1 16 21
M  V30 21 1 18 22
M  V30 22 2 18 23
M  V30 23 1 20 24
M  V30 24 1 21 25
M  V30 25 1 21 26
M  V30 26 1 21 27
M  V30 27 1 23 28
M  V30 28 3 24 29
M  V30 29 2 28 30
M  V30 30 1 28 31
M  V30 31 1 31 32
M  V30 32 1 6 8
M  V30 33 1 17 20
M  V30 34 1 19 23
M  V30 END BOND
M  V30 END CTAB
M  END
>  <Molecule Name>
_c001

>  <status>
-

>  <cas>
915087-33-1

>  <name>
ENZALUTAMIDE

>  <ID>
1590

>  <Smiles>
CC(C)(C(N(C1=S)c(cc2)cc(C(F)(F)F)c2C#N)=O)N1c(cc1)cc(F)c1C(NC)=O

$$$$
_c001
Actelion Java MolfileCreator 2.0

  0  0  0  0  0  0              0 V3000
M  V30 BEGIN CTAB
M  V30 COUNTS 31 33 0 0 0
M  V30 BEGIN ATOM
M  V30 1 S 5.5372 -5.4954 0.0 0
M  V30 2 C 6.6519 -4.4917 0.0 0
M  V30 3 N 8.1192 -4.8036 0.0 0
M  V30 4 N 6.4951 -3.0 0.0 0
M  V30 5 C 8.7293 -6.1739 0.0 0
M  V30 6 C 8.8692 -3.5046 0.0 0
M  V30 7 C 5.1961 -2.25 0.0 0
M  V30 8 C 7.8655 -2.3898 0.0 0
M  V30 9 C 7.8476 -7.3875 0.0 0
M  V30 10 C 10.2211 -6.3307 0.0 0
M  V30 11 O 10.361 -3.3478 0.0 0
M  V30 12 C 5.1961 -0.75 0.0 0
M  V30 13 C 3.8971 -3.0 0.0 0
M  V30 14 C 8.8692 -1.2752 0.0 0
M  V30 15 C 7.4019 -0.9633 0.0 0
M  V30 16 C 8.4577 -8.7578 0.0 0
M  V30 17 C 10.8312 -7.701 0.0 0
M  V30 18 C 3.8971 0.0 0.0 0
M  V30 19 C 2.598 -2.25 0.0 0
M  V30 20 C 9.9495 -8.9146 0.0 0
M  V30 21 C 7.576 -9.9713 0.0 0
M  V30 22 F 3.8971 1.5 0.0 0
M  V30 23 C 2.598 -0.75 0.0 0
M  V30 24 C 10.5596 -10.2849 0.0 0
M  V30 25 F 8.7895 -10.853 0.0 0
M  V30 26 F 6.6943 -11.1848 0.0 0
M  V30 27 F 6.3625 -9.0896 0.0 0
M  V30 28 C 1.299 0.0 0.0 0
M  V30 29 N 11.1697 -11.6552 0.0 0
M  V30 30 O 1.299 1.5 0.0 0
M  V30 31 N 0.0 -0.75 0.0 0
M  V30 END ATOM
M  V30 BEGIN BOND
M  V30 1 2 1 2
M  V30 2 1 2 3
M  V30 3 1 2 4
M  V30 4 1 3 5
M  V30 5 1 3 6
M  V30 6 1 4 7
M  V30 7 1 4 8
M  V30 8 2 5 9
M  V30 9 1 5 10
M  V30 10 2 6 11
M  V30 11 2 7 12
M  V30 12 1 7 13
M  V30 13 1 8 14
M  V30 14 1 8 15
M  V30 15 1 9 16
M  V30 16 2 10 17
M  V30 17 1 12 18
M  V30 18 2 13 19
M  V30 19 2 16 20
M  V30 20 1 16 21
M  V30 21 1 18 22
M  V30 22 2 18 23
M  V30 23 1 20 24
M  V30 24 1 21 25
M  V30 25 1 21 26
M  V30 26 1 21 27
M  V30 27 1 23 28
M  V30 28 3 24 29
M  V30 29 2 28 30
M  V30 30 1 28 31
M  V30 31 1 6 8
M  V30 32 1 17 20
M  V30 33 1 19 23
M  V30 END BOND
M  V30 END CTAB
M  END
>  <Molecule Name>
_c001

>  <status>
-

>  <cas>
1242137-16-1

>  <name>
M ENZALUTAMIDE

>  <ID>
1591

>  <Smiles>
CC(C)(C(N(C1=S)c(cc2)cc(C(F)(F)F)c2C#N)=O)N1c(cc1)cc(F)c1C(N)=O

$$$$
_c001
Actelion Java MolfileCreator 2.0

  0  0  0  0  0  0              0 V3000
M  V30 BEGIN CTAB
M  V30 COUNTS 36 39 0 0 0
M  V30 BEGIN ATOM
M  V30 1 Cl 11.2583 2.9999 0.0 0
M  V30 2 C 10.3923 2.4999 0.0 0
M  V30 3 C 9.5262 2.9999 0.0 0
M  V30 4 C 10.3923 1.4999 0.0 0
M  V30 5 O 9.5262 3.9999 0.0 0
M  V30 6 C 8.6602 2.4999 0.0 0
M  V30 7 C 9.5262 0.9999 0.0 0
M  V30 8 C 8.6602 4.4999 0.0 0
M  V30 9 C 8.6602 1.4999 0.0 0
M  V30 10 Cl 9.5262 0.0 0.0 0
M  V30 11 N 7.7942 0.9999 0.0 0
M  V30 12 C 6.9282 1.4999 0.0 0
M  V30 13 C 6.9282 2.4999 0.0 0
M  V30 14 C 6.0621 0.9999 0.0 0
M  V30 15 C 7.7942 2.9999 0.0 0
M  V30 16 C 6.0621 2.9999 0.0 0
M  V30 17 C 5.1961 1.4999 0.0 0
M  V30 18 C 6.0621 0.0 0.0 0
M  V30 19 N 8.6602 3.4999 0.0 0
M  V30 20 N 5.1961 2.4999 0.0 0
M  V30 21 C 4.3301 0.9999 0.0 0
M  V30 22 C 5.1961 -0.5 0.0 0
M  V30 23 C 4.3301 0.0 0.0 0
M  V30 24 O 5.1961 -1.5 0.0 0
M  V30 25 O 3.4641 -0.5 0.0 0
M  V30 26 C 6.0621 -2.0 0.0 0
M  V30 27 C 2.598 0.0 0.0 0
M  V30 28 C 1.732 -0.5 0.0 0
M  V30 29 C 0.866 0.0 0.0 0
M  V30 30 N 0.0 -0.5 0.0 0
M  V30 31 C -0.866 0.0 0.0 0
M  V30 32 C 0.0 -1.4999 0.0 0
M  V30 33 C -1.732 -0.4999 0.0 0
M  V30 34 C -0.866 -1.9999 0.0 0
M  V30 35 N -1.732 -1.4999 0.0 0
M  V30 36 C -2.598 -1.9999 0.0 0
M  V30 END ATOM
M  V30 BEGIN BOND
M  V30 1 1 1 2
M  V30 2 2 2 3
M  V30 3 1 2 4
M  V30 4 1 3 5
M  V30 5 1 3 6
M  V30 6 2 4 7
M  V30 7 1 5 8
M  V30 8 2 6 9
M  V30 9 1 7 10
M  V30 10 1 9 11
M  V30 11 1 11 12
M  V30 12 2 12 13
M  V30 13 1 12 14
M  V30 14 1 13 15
M  V30 15 1 13 16
M  V30 16 1 14 17
M  V30 17 2 14 18
M  V30 18 3 15 19
M  V30 19 2 16 20
M  V30 20 2 17 21
M  V30 21 1 18 22
M  V30 22 1 21 23
M  V30 23 1 22 24
M  V30 24 1 23 25
M  V30 25 1 24 26
M  V30 26 1 25 27
M  V30 27 1 27 28
M  V30 28 1 28 29
M  V30 29 1 29 30
M  V30 30 1 30 31
M  V30 31 1 30 32
M  V30 32 1 31 33
M  V30 33 1 32 34
M  V30 34 1 33 35
M  V30 35 1 35 36
M  V30 36 1 7 9
M  V30 37 1 17 20
M  V30 38 2 22 23
M  V30 39 1 34 35
M  V30 END BOND
M  V30 END CTAB
M  END
>  <Molecule Name>
_c001

>  <status>
-

>  <cas>
380843-75-4

>  <name>
BOSUTINIB

>  <ID>
1592

>  <Smiles>
CN1CCN(CCCOc(cc(c2c3)ncc(C#N)c2Nc(c(Cl)c2)cc(OC)c2Cl)c3OC)CC1

$$$$
_c001
Actelion Java MolfileCreator 2.0

  0  0  0  0  0  0              0 V3000
M  V30 BEGIN CTAB
M  V30 COUNTS 39 43 0 0 0
M  V30 BEGIN ATOM
M  V30 1 F 5.6961 0.366 0.0 0
M  V30 2 C 5.1961 -0.5 0.0 0
M  V30 3 F 6.0621 -1.0 0.0 0
M  V30 4 F 4.6961 -1.366 0.0 0
M  V30 5 C 4.3301 0.0 0.0 0
M  V30 6 C 4.3301 1.0 0.0 0
M  V30 7 C 3.4641 -0.4999 0.0 0
M  V30 8 C 3.4641 1.5 0.0 0
M  V30 9 C 5.1961 1.5 0.0 0
M  V30 10 C 2.598 0.0 0.0 0
M  V30 11 C 2.598 1.0 0.0 0
M  V30 12 N 5.1961 2.5 0.0 0
M  V30 13 N 1.732 -0.5 0.0 0
M  V30 14 C 6.0621 2.9999 0.0 0
M  V30 15 C 4.3301 3.0 0.0 0
M  V30 16 C 0.866 0.0 0.0 0
M  V30 17 C 6.0621 3.9999 0.0 0
M  V30 18 C 4.3301 4.0 0.0 0
M  V30 19 O 0.866 1.0 0.0 0
M  V30 20 C 0.0 -0.5 0.0 0
M  V30 21 N 5.1961 4.4999 0.0 0
M  V30 22 C -0.866 0.0 0.0 0
M  V30 23 C 0.0 -1.5 0.0 0
M  V30 24 C 5.1961 5.4999 0.0 0
M  V30 25 C -1.732 -0.4999 0.0 0
M  V30 26 C -0.866 -1.9999 0.0 0
M  V30 27 C -2.598 0.0 0.0 0
M  V30 28 C -1.732 -1.4999 0.0 0
M  V30 29 C -3.4641 0.5 0.0 0
M  V30 30 C -2.598 -1.9999 0.0 0
M  V30 31 C -4.3301 1.0 0.0 0
M  V30 32 N -4.4346 1.9945 0.0 0
M  V30 33 C -5.2436 0.5932 0.0 0
M  V30 34 N -3.7655 2.7376 0.0 0
M  V30 35 C -5.4128 2.2024 0.0 0
M  V30 36 N -5.9128 1.3364 0.0 0
M  V30 37 C -4.0745 3.6887 0.0 0
M  V30 38 C -5.7218 3.1534 0.0 0
M  V30 39 C -5.0526 3.8966 0.0 0
M  V30 END ATOM
M  V30 BEGIN BOND
M  V30 1 1 1 2
M  V30 2 1 2 3
M  V30 3 1 2 4
M  V30 4 1 2 5
M  V30 5 2 5 6
M  V30 6 1 5 7
M  V30 7 1 6 8
M  V30 8 1 6 9
M  V30 9 2 7 10
M  V30 10 2 8 11
M  V30 11 1 9 12
M  V30 12 1 10 13
M  V30 13 1 12 14
M  V30 14 1 12 15
M  V30 15 1 13 16
M  V30 16 1 14 17
M  V30 17 1 15 18
M  V30 18 2 16 19
M  V30 19 1 16 20
M  V30 20 1 17 21
M  V30 21 2 20 22
M  V30 22 1 20 23
M  V30 23 1 21 24
M  V30 24 1 22 25
M  V30 25 2 23 26
M  V30 26 1 25 27
M  V30 27 2 25 28
M  V30 28 3 27 29
M  V30 29 1 28 30
M  V30 30 1 29 31
M  V30 31 1 31 32
M  V30 32 2 31 33
M  V30 33 1 32 34
M  V30 34 1 32 35
M  V30 35 1 33 36
M  V30 36 2 34 37
M  V30 37 1 35 38
M  V30 38 1 37 39
M  V30 39 1 10 11
M  V30 40 1 18 21
M  V30 41 1 26 28
M  V30 42 2 35 36
M  V30 43 2 38 39
M  V30 END BOND
M  V30 END CTAB
M  END
>  <Molecule Name>
_c001

>  <status>
-

>  <cas>
943319-70-8

>  <name>
PONATINIB

>  <ID>
1593

>  <Smiles>
Cc(ccc(C(Nc1cc(C(F)(F)F)c(CN2CCN(C)CC2)cc1)=O)c1)c1C#Cc1cnc2n1nccc2

$$$$
_c001
Actelion Java MolfileCreator 2.0

  0  0  0  0  0  0              0 V3000
M  V30 BEGIN CTAB
M  V30 COUNTS 39 43 0 0 0
M  V30 BEGIN ATOM
M  V30 1 O 3.4641 -0.5 0.0 0
M  V30 2 C 3.4641 -1.5 0.0 0
M  V30 3 O 4.1545 -1.9985 0.0 0
M  V30 4 C 2.598 -2.0 0.0 0 CFG=1
M  V30 5 C 5.089 -1.441 0.0 0 CFG=1
M  V30 6 O 1.732 -2.5 0.0 0
M  V30 7 C 2.598 -3.0 0.0 0
M  V30 8 C 1.732 -1.5 0.0 0
M  V30 9 C 6.1291 -1.8266 0.0 0
M  V30 10 C 5.3006 -0.5054 0.0 0 CFG=2
M  V30 11 C 1.732 -3.5 0.0 0
M  V30 12 C 1.732 -0.5 0.0 0
M  V30 13 O 6.3884 -2.8897 0.0 0
M  V30 14 C 6.7788 -1.1635 0.0 0
M  V30 15 C 5.424 -1.7158 0.0 0
M  V30 16 C 6.2788 -0.2975 0.0 0 CFG=1
M  V30 17 O 0.866 -3.0 0.0 0
M  V30 18 O 1.732 -4.5 0.0 0
M  V30 19 C 0.866 0.0 0.0 0
M  V30 20 C 7.2686 -3.1939 0.0 0
M  V30 21 C 6.1146 -2.2995 0.0 0
M  V30 22 C 4.5616 -2.0604 0.0 0
M  V30 23 N 7.2569 -0.0896 0.0 0
M  V30 24 C 5.7788 0.5684 0.0 0
M  V30 25 C 0.866 -5.0 0.0 0
M  V30 26 C 0.866 0.9999 0.0 0
M  V30 27 C 6.0212 -3.2478 0.0 0
M  V30 28 C 7.1632 -2.0534 0.0 0
M  V30 29 C 4.3126 -2.9641 0.0 0
M  V30 30 C 7.6105 -1.159 0.0 0
M  V30 31 C 7.3615 0.9048 0.0 0
M  V30 32 C 6.4479 1.3116 0.0 0
M  V30 33 O 1.866 0.9999 0.0 0
M  V30 34 C 0.866 1.9999 0.0 0
M  V30 35 C -0.1339 0.9999 0.0 0
M  V30 36 C 5.085 -3.5992 0.0 0
M  V30 37 O 3.4698 -3.5024 0.0 0
M  V30 38 O 4.7196 -4.53 0.0 0
M  V30 39 C 3.7214 -4.4702 0.0 0
M  V30 END ATOM
M  V30 BEGIN BOND
M  V30 1 2 1 2
M  V30 2 1 2 3
M  V30 3 1 4 2
M  V30 4 1 5 3 CFG=3
M  V30 5 1 4 6 CFG=3
M  V30 6 1 4 7
M  V30 7 1 4 8
M  V30 8 1 5 9
M  V30 9 1 10 5
M  V30 10 1 7 11
M  V30 11 1 8 12
M  V30 12 1 9 13
M  V30 13 2 9 14
M  V30 14 1 10 15 CFG=3
M  V30 15 1 16 10 CFG=3
M  V30 16 2 11 17
M  V30 17 1 11 18
M  V30 18 1 12 19
M  V30 19 1 13 20
M  V30 20 2 15 21
M  V30 21 1 15 22
M  V30 22 1 16 23
M  V30 23 1 16 24
M  V30 24 1 18 25
M  V30 25 1 19 26
M  V30 26 1 21 27
M  V30 27 1 21 28
M  V30 28 2 22 29
M  V30 29 1 23 30
M  V30 30 1 23 31
M  V30 31 1 24 32
M  V30 32 1 26 33
M  V30 33 1 26 34
M  V30 34 1 26 35
M  V30 35 2 27 36
M  V30 36 1 29 37
M  V30 37 1 36 38
M  V30 38 1 37 39
M  V30 39 1 14 16
M  V30 40 1 28 30
M  V30 41 1 29 36
M  V30 42 1 31 32
M  V30 43 1 38 39
M  V30 END BOND
M  V30 BEGIN COLLECTION
M  V30 MDLV30/STERAC1 ATOMS=(4 4 5 10 16)
M  V30 END COLLECTION
M  V30 END CTAB
M  END
>  <Molecule Name>
_c001

>  <status>
-

>  <cas>
26833-87-4

>  <name>
OMACETAXINE MEPESUCCINATE

>  <ID>
1594

>  <Smiles>
CC(C)(CCC[C@](CC(OC)=O)(C(O[C@H]([C@H]12)C(OC)=C[C@@]2(CCC2)N2CCc2c1cc1OCOc1c2)=O)O)O

$$$$
_c001
Actelion Java MolfileCreator 2.0

  0  0  0  0  0  0              0 V3000
M  V30 BEGIN CTAB
M  V30 COUNTS 37 41 0 0 0
M  V30 BEGIN ATOM
M  V30 1 Br 6.9282 -4.5 0.0 0
M  V30 2 C 6.9282 -3.4999 0.0 0
M  V30 3 C 6.0621 -3.0 0.0 0
M  V30 4 C 7.7942 -2.9999 0.0 0
M  V30 5 C 6.0621 -1.9999 0.0 0
M  V30 6 C 7.7942 -2.0 0.0 0
M  V30 7 C 6.9282 -1.4999 0.0 0
M  V30 8 C 5.1961 -1.5 0.0 0
M  V30 9 N 6.9282 -0.4999 0.0 0
M  V30 10 C 5.1961 -0.5 0.0 0
M  V30 11 C 6.0621 0.0 0.0 0
M  V30 12 C 4.3301 0.0 0.0 0 CFG=1
M  V30 13 O 6.0621 1.0 0.0 0
M  V30 14 C 4.2246 1.0585 0.0 0
M  V30 15 C 3.4641 -0.5 0.0 0 CFG=2
M  V30 16 C 6.9282 1.5 0.0 0
M  V30 17 C 5.1961 1.4999 0.0 0
M  V30 18 C 3.4641 1.5 0.0 0
M  V30 19 O 3.4641 -1.5 0.0 0
M  V30 20 C 3.4641 0.4999 0.0 0
M  V30 21 C 2.598 0.0 0.0 0
M  V30 22 C 5.1961 2.4999 0.0 0
M  V30 23 C 3.6473 2.6388 0.0 0
M  V30 24 C 2.598 1.0 0.0 0
M  V30 25 C 4.5289 0.8641 0.0 0
M  V30 26 C 1.732 -0.4999 0.0 0
M  V30 27 C 4.3301 2.9999 0.0 0
M  V30 28 C 2.598 1.9999 0.0 0
M  V30 29 C 1.732 0.5 0.0 0
M  V30 30 C 4.3301 1.9999 0.0 0
M  V30 31 N 1.732 -1.4999 0.0 0
M  V30 32 C 3.326 2.4727 0.0 0
M  V30 33 C 1.732 2.5 0.0 0
M  V30 34 C 0.866 0.9999 0.0 0
M  V30 35 C 2.598 -2.0 0.0 0
M  V30 36 C 0.866 -2.0 0.0 0
M  V30 37 C 0.866 1.9999 0.0 0
M  V30 END ATOM
M  V30 BEGIN BOND
M  V30 1 1 1 2
M  V30 2 2 2 3
M  V30 3 1 2 4
M  V30 4 1 3 5
M  V30 5 2 4 6
M  V30 6 1 5 7
M  V30 7 2 5 8
M  V30 8 2 7 9
M  V30 9 1 8 10
M  V30 10 1 9 11
M  V30 11 1 12 10 CFG=3
M  V30 12 1 11 13
M  V30 13 1 12 14
M  V30 14 1 15 12
M  V30 15 1 13 16
M  V30 16 2 14 17
M  V30 17 1 14 18
M  V30 18 1 15 19
M  V30 19 1 15 20 CFG=3
M  V30 20 1 15 21
M  V30 21 1 17 22
M  V30 22 2 18 23
M  V30 23 1 20 24
M  V30 24 2 20 25
M  V30 25 1 21 26
M  V30 26 2 22 27
M  V30 27 1 24 28
M  V30 28 2 24 29
M  V30 29 1 25 30
M  V30 30 1 26 31
M  V30 31 1 28 32
M  V30 32 2 28 33
M  V30 33 1 29 34
M  V30 34 1 31 35
M  V30 35 1 31 36
M  V30 36 1 33 37
M  V30 37 1 6 7
M  V30 38 2 10 11
M  V30 39 1 23 27
M  V30 40 2 30 32
M  V30 41 2 34 37
M  V30 END BOND
M  V30 BEGIN COLLECTION
M  V30 MDLV30/STERAC1 ATOMS=(2 12 15)
M  V30 END COLLECTION
M  V30 END CTAB
M  END
>  <Molecule Name>
_c001

>  <status>
-

>  <cas>
843663-66-1

>  <name>
BEDAQUILINE

>  <ID>
1595

>  <Smiles>
CN(C)CC[C@]([C@H](c1ccccc1)c(cc(cc(cc1)Br)c1n1)c1OC)(c1cccc2ccccc12)O

$$$$
_c001
Actelion Java MolfileCreator 2.0

  0  0  0  0  0  0              0 V3000
M  V30 BEGIN CTAB
M  V30 COUNTS 20 22 0 0 0
M  V30 BEGIN ATOM
M  V30 1 O 1.732 -1.5 0.0 0
M  V30 2 C 1.732 -0.5 0.0 0
M  V30 3 N 2.598 0.0 0.0 0
M  V30 4 C 0.866 0.0 0.0 0 CFG=1
M  V30 5 C 2.598 0.9999 0.0 0
M  V30 6 N 0.0 -0.5 0.0 0
M  V30 7 C 0.866 1.0 0.0 0
M  V30 8 O 3.4641 1.4999 0.0 0
M  V30 9 C 1.732 1.4999 0.0 0
M  V30 10 C -0.9135 -0.0932 0.0 0
M  V30 11 C -0.1045 -1.4945 0.0 0
M  V30 12 O -1.1214 0.8848 0.0 0
M  V30 13 C -1.5826 -0.8364 0.0 0
M  V30 14 O 0.6386 -2.1636 0.0 0
M  V30 15 C -1.0826 -1.7024 0.0 0
M  V30 16 C -2.5826 -0.8364 0.0 0
M  V30 17 C -1.5826 -2.5684 0.0 0
M  V30 18 N -3.0826 0.0296 0.0 0
M  V30 19 C -3.0826 -1.7024 0.0 0
M  V30 20 C -2.5826 -2.5684 0.0 0
M  V30 END ATOM
M  V30 BEGIN BOND
M  V30 1 2 1 2
M  V30 2 1 2 3
M  V30 3 1 4 2
M  V30 4 1 3 5
M  V30 5 1 4 6 CFG=1
M  V30 6 1 4 7
M  V30 7 2 5 8
M  V30 8 1 5 9
M  V30 9 1 6 10
M  V30 10 1 6 11
M  V30 11 2 10 12
M  V30 12 1 10 13
M  V30 13 2 11 14
M  V30 14 1 11 15
M  V30 15 1 13 16
M  V30 16 1 15 17
M  V30 17 1 16 18
M  V30 18 2 16 19
M  V30 19 2 17 20
M  V30 20 1 7 9
M  V30 21 2 13 15
M  V30 22 1 19 20
M  V30 END BOND
M  V30 BEGIN COLLECTION
M  V30 MDLV30/STERAC1 ATOMS=(1 4)
M  V30 END COLLECTION
M  V30 END CTAB
M  END
>  <Molecule Name>
_c001

>  <status>
-

>  <cas>
19171-19-8

>  <name>
POMALIDOMIDE

>  <ID>
1596

>  <Smiles>
Nc1cccc(C(N2C(CCC(N3)=O)C3=O)=O)c1C2=O

$$$$
_c001
Actelion Java MolfileCreator 2.0

  0  0  0  0  0  0              0 V3000
M  V30 BEGIN CTAB
M  V30 COUNTS 27 29 0 0 0
M  V30 BEGIN ATOM
M  V30 1 Cl 2.598 -2.9999 0.0 0
M  V30 2 C 2.598 -1.9999 0.0 0
M  V30 3 C 1.732 -1.4999 0.0 0
M  V30 4 C 1.732 -0.5 0.0 0
M  V30 5 C 2.598 0.0 0.0 0
M  V30 6 C 0.866 0.0 0.0 0
M  V30 7 C 2.598 1.0 0.0 0
M  V30 8 C 3.4641 -0.4999 0.0 0
M  V30 9 C 0.866 1.0 0.0 0
M  V30 10 C 0.0 -0.5 0.0 0
M  V30 11 C 3.4641 1.5 0.0 0
M  V30 12 C 4.3301 0.0 0.0 0
M  V30 13 C 1.732 1.5 0.0 0
M  V30 14 C 0.0 1.4999 0.0 0
M  V30 15 C -0.866 0.0 0.0 0
M  V30 16 C 0.0 -1.4999 0.0 0
M  V30 17 C 4.3301 1.0 0.0 0
M  V30 18 C 1.732 2.4999 0.0 0
M  V30 19 C 0.0 2.4999 0.0 0
M  V30 20 C -1.732 -0.4999 0.0 0
M  V30 21 C -0.866 -1.9999 0.0 0
M  V30 22 C 0.866 2.9999 0.0 0
M  V30 23 C -1.732 -1.4999 0.0 0
M  V30 24 O 0.866 3.9999 0.0 0
M  V30 25 C 0.0 4.5 0.0 0
M  V30 26 C 0.0 5.4999 0.0 0
M  V30 27 O -0.866 5.9999 0.0 0
M  V30 END ATOM
M  V30 BEGIN BOND
M  V30 1 1 1 2
M  V30 2 1 2 3
M  V30 3 1 3 4
M  V30 4 1 4 5
M  V30 5 2 4 6
M  V30 6 2 5 7
M  V30 7 1 5 8
M  V30 8 1 6 9
M  V30 9 1 6 10
M  V30 10 1 7 11
M  V30 11 2 8 12
M  V30 12 2 9 13
M  V30 13 1 9 14
M  V30 14 2 10 15
M  V30 15 1 10 16
M  V30 16 2 11 17
M  V30 17 1 13 18
M  V30 18 2 14 19
M  V30 19 1 15 20
M  V30 20 2 16 21
M  V30 21 2 18 22
M  V30 22 2 20 23
M  V30 23 1 22 24
M  V30 24 1 24 25
M  V30 25 1 25 26
M  V30 26 1 26 27
M  V30 27 1 12 17
M  V30 28 1 19 22
M  V30 29 1 21 23
M  V30 END BOND
M  V30 END CTAB
M  END
>  <Molecule Name>
_c001

>  <status>
-

>  <cas>
128607-22-7

>  <name>
OSPEMIFENE

>  <ID>
1597

>  <Smiles>
OCCOc(cc1)ccc1/C(/c1ccccc1)=C(/CCCl)\c1ccccc1

$$$$
_c001
Actelion Java MolfileCreator 2.0

  0  0  0  0  0  0              0 V3000
M  V30 BEGIN CTAB
M  V30 COUNTS 35 38 0 0 0
M  V30 BEGIN ATOM
M  V30 1 S 2.598 -0.75 0.0 0
M  V30 2 O 1.848 -2.049 0.0 0
M  V30 3 O 3.348 -2.049 0.0 0
M  V30 4 N 1.299 0.0 0.0 0
M  V30 5 C 3.8971 0.0 0.0 0
M  V30 6 C 0.0 -0.75 0.0 0
M  V30 7 C 5.1961 -0.75 0.0 0
M  V30 8 C 3.8971 1.5 0.0 0
M  V30 9 C -1.299 0.0 0.0 0
M  V30 10 C 0.0 -2.25 0.0 0
M  V30 11 F 5.1961 -2.25 0.0 0
M  V30 12 C 6.4951 0.0 0.0 0
M  V30 13 F 2.598 2.25 0.0 0
M  V30 14 C 5.1961 2.25 0.0 0
M  V30 15 F -1.299 1.5 0.0 0
M  V30 16 C -2.598 -0.75 0.0 0
M  V30 17 C -1.299 -3.0 0.0 0
M  V30 18 C 6.4951 1.5 0.0 0
M  V30 19 C -3.8971 0.0 0.0 0
M  V30 20 C -2.598 -2.25 0.0 0
M  V30 21 N -4.0539 1.4917 0.0 0
M  V30 22 C -5.2674 -0.6101 0.0 0
M  V30 23 C -5.5211 1.8036 0.0 0
M  V30 24 S -6.2711 0.5046 0.0 0
M  V30 25 C -5.5793 -2.0773 0.0 0
M  V30 26 C -6.1312 3.1739 0.0 0
M  V30 27 N -7.0058 -2.5408 0.0 0
M  V30 28 C -4.4645 -3.081 0.0 0
M  V30 29 C -7.5015 2.5638 0.0 0
M  V30 30 C -6.7413 4.5442 0.0 0
M  V30 31 C -4.7609 3.784 0.0 0
M  V30 32 C -7.3177 -4.008 0.0 0
M  V30 33 N -4.7764 -4.5482 0.0 0
M  V30 34 C -6.203 -5.0117 0.0 0
M  V30 35 N -6.5149 -6.4789 0.0 0
M  V30 END ATOM
M  V30 BEGIN BOND
M  V30 1 2 1 2
M  V30 2 2 1 3
M  V30 3 1 1 4
M  V30 4 1 1 5
M  V30 5 1 4 6
M  V30 6 2 5 7
M  V30 7 1 5 8
M  V30 8 2 6 9
M  V30 9 1 6 10
M  V30 10 1 7 11
M  V30 11 1 7 12
M  V30 12 1 8 13
M  V30 13 2 8 14
M  V30 14 1 9 15
M  V30 15 1 9 16
M  V30 16 2 10 17
M  V30 17 2 12 18
M  V30 18 1 16 19
M  V30 19 2 16 20
M  V30 20 1 19 21
M  V30 21 2 19 22
M  V30 22 2 21 23
M  V30 23 1 22 24
M  V30 24 1 22 25
M  V30 25 1 23 26
M  V30 26 2 25 27
M  V30 27 1 25 28
M  V30 28 1 26 29
M  V30 29 1 26 30
M  V30 30 1 26 31
M  V30 31 1 27 32
M  V30 32 2 28 33
M  V30 33 2 32 34
M  V30 34 1 34 35
M  V30 35 1 14 18
M  V30 36 1 17 20
M  V30 37 1 23 24
M  V30 38 1 33 34
M  V30 END BOND
M  V30 END CTAB
M  END
>  <Molecule Name>
_c001

>  <status>
-

>  <cas>
1195765-45-7

>  <name>
DABRAFENIB

>  <ID>
1598

>  <Smiles>
CC(C)(C)c1nc(-c2cccc(NS(c(c(F)ccc3)c3F)(=O)=O)c2F)c(-c2ncc(N)nc2)s1

$$$$
_c001
Actelion Java MolfileCreator 2.0

  0  0  0  0  0  0              0 V3000
M  V30 BEGIN CTAB
M  V30 COUNTS 20 22 0 0 0
M  V30 BEGIN ATOM
M  V30 1 O 1.732 -1.5 0.0 0
M  V30 2 C 1.732 -0.5 0.0 0
M  V30 3 N 2.598 0.0 0.0 0
M  V30 4 C 0.866 0.0 0.0 0 CFG=1
M  V30 5 C 2.598 0.9999 0.0 0
M  V30 6 N 0.0 -0.5 0.0 0
M  V30 7 C 0.866 1.0 0.0 0
M  V30 8 O 3.4641 1.4999 0.0 0
M  V30 9 C 1.732 1.4999 0.0 0
M  V30 10 C -0.9135 -0.0932 0.0 0
M  V30 11 C -0.1045 -1.4945 0.0 0
M  V30 12 O -1.1214 0.8848 0.0 0
M  V30 13 C -1.5826 -0.8364 0.0 0
M  V30 14 O 0.6386 -2.1636 0.0 0
M  V30 15 C -1.0826 -1.7024 0.0 0
M  V30 16 C -2.5826 -0.8364 0.0 0
M  V30 17 C -1.5826 -2.5684 0.0 0
M  V30 18 N -3.0826 0.0296 0.0 0
M  V30 19 C -3.0826 -1.7024 0.0 0
M  V30 20 C -2.5826 -2.5684 0.0 0
M  V30 END ATOM
M  V30 BEGIN BOND
M  V30 1 2 1 2
M  V30 2 1 2 3
M  V30 3 1 4 2
M  V30 4 1 3 5
M  V30 5 1 4 6 CFG=1
M  V30 6 1 4 7
M  V30 7 2 5 8
M  V30 8 1 5 9
M  V30 9 1 6 10
M  V30 10 1 6 11
M  V30 11 2 10 12
M  V30 12 1 10 13
M  V30 13 2 11 14
M  V30 14 1 11 15
M  V30 15 1 13 16
M  V30 16 1 15 17
M  V30 17 1 16 18
M  V30 18 2 16 19
M  V30 19 2 17 20
M  V30 20 1 7 9
M  V30 21 2 13 15
M  V30 22 1 19 20
M  V30 END BOND
M  V30 BEGIN COLLECTION
M  V30 MDLV30/STERAC1 ATOMS=(1 4)
M  V30 END COLLECTION
M  V30 END CTAB
M  END
>  <Molecule Name>
_c001

>  <status>
-

>  <cas>
19171-19-8

>  <name>
POMALIDOMIDE

>  <ID>
1599

>  <Smiles>
Nc1cccc(C(N2C(CCC(N3)=O)C3=O)=O)c1C2=O

$$$$
_c001
Actelion Java MolfileCreator 2.0

  0  0  0  0  0  0              0 V3000
M  V30 BEGIN CTAB
M  V30 COUNTS 37 41 0 0 0
M  V30 BEGIN ATOM
M  V30 1 I -1.732 7.4999 0.0 0
M  V30 2 C -0.866 7.0 0.0 0
M  V30 3 C 0.0 7.5 0.0 0
M  V30 4 C -0.866 6.0 0.0 0
M  V30 5 C 0.866 7.0 0.0 0
M  V30 6 C 0.0 5.5 0.0 0
M  V30 7 F 1.732 7.5 0.0 0
M  V30 8 C 0.866 5.9999 0.0 0
M  V30 9 N 1.732 5.4999 0.0 0
M  V30 10 C 1.732 4.4999 0.0 0
M  V30 11 N 0.866 3.9999 0.0 0
M  V30 12 C 2.598 4.0 0.0 0
M  V30 13 C 0.866 2.9999 0.0 0
M  V30 14 C 0.0 4.4999 0.0 0
M  V30 15 C 3.4641 4.5 0.0 0
M  V30 16 C 2.598 3.0 0.0 0
M  V30 17 O 0.0 2.4999 0.0 0
M  V30 18 C 1.732 2.4999 0.0 0
M  V30 19 O 3.4641 5.5 0.0 0
M  V30 20 N 4.3301 4.0 0.0 0
M  V30 21 N 3.4641 2.5 0.0 0
M  V30 22 C 1.732 1.4999 0.0 0
M  V30 23 C 4.3301 3.0 0.0 0
M  V30 24 C 5.1961 4.5 0.0 0
M  V30 25 C 3.4641 1.5 0.0 0
M  V30 26 O 5.1961 2.5 0.0 0
M  V30 27 C 6.1961 4.5 0.0 0
M  V30 28 C 5.6961 5.366 0.0 0
M  V30 29 C 2.598 1.0 0.0 0
M  V30 30 C 4.3301 1.0 0.0 0
M  V30 31 C 2.598 0.0 0.0 0
M  V30 32 C 4.3301 0.0 0.0 0
M  V30 33 N 1.732 -0.5 0.0 0
M  V30 34 C 3.4641 -0.4999 0.0 0
M  V30 35 C 0.866 0.0 0.0 0
M  V30 36 O 0.866 1.0 0.0 0
M  V30 37 C 0.0 -0.5 0.0 0
M  V30 END ATOM
M  V30 BEGIN BOND
M  V30 1 1 1 2
M  V30 2 2 2 3
M  V30 3 1 2 4
M  V30 4 1 3 5
M  V30 5 2 4 6
M  V30 6 1 5 7
M  V30 7 2 5 8
M  V30 8 1 8 9
M  V30 9 1 9 10
M  V30 10 1 10 11
M  V30 11 2 10 12
M  V30 12 1 11 13
M  V30 13 1 11 14
M  V30 14 1 12 15
M  V30 15 1 12 16
M  V30 16 2 13 17
M  V30 17 1 13 18
M  V30 18 2 15 19
M  V30 19 1 15 20
M  V30 20 1 16 21
M  V30 21 1 18 22
M  V30 22 1 20 23
M  V30 23 1 20 24
M  V30 24 1 21 25
M  V30 25 2 23 26
M  V30 26 1 24 27
M  V30 27 1 24 28
M  V30 28 2 25 29
M  V30 29 1 25 30
M  V30 30 1 29 31
M  V30 31 2 30 32
M  V30 32 1 31 33
M  V30 33 2 31 34
M  V30 34 1 33 35
M  V30 35 2 35 36
M  V30 36 1 35 37
M  V30 37 1 6 8
M  V30 38 2 16 18
M  V30 39 1 21 23
M  V30 40 1 27 28
M  V30 41 1 32 34
M  V30 END BOND
M  V30 END CTAB
M  END
>  <Molecule Name>
_c001

>  <status>
-

>  <cas>
871700-17-3

>  <name>
TRAMETINIB

>  <ID>
1600

>  <Smiles>
CC(Nc1cccc(N(C(C(C(N2C3CC3)=O)=C(Nc(ccc(I)c3)c3F)N3C)=C(C)C3=O)C2=O)c1)=O

$$$$
_c001
Actelion Java MolfileCreator 2.0

  0  0  0  0  0  0              0 V3000
M  V30 BEGIN CTAB
M  V30 COUNTS 29 31 0 0 0
M  V30 BEGIN ATOM
M  V30 1 S 1.732 -0.5 0.0 0
M  V30 2 O 1.232 -1.366 0.0 0
M  V30 3 O 2.232 0.366 0.0 0
M  V30 4 O 0.866 0.0 0.0 0
M  V30 5 O 2.598 -0.9999 0.0 0
M  V30 6 C 0.0 -0.5 0.0 0
M  V30 7 C -0.866 0.0 0.0 0
M  V30 8 C 0.0 -1.4999 0.0 0
M  V30 9 C -1.732 -0.4999 0.0 0
M  V30 10 C -0.866 -1.9999 0.0 0
M  V30 11 C -1.732 -1.4999 0.0 0
M  V30 12 C -2.598 -1.9999 0.0 0
M  V30 13 C -3.4641 -1.4999 0.0 0
M  V30 14 C -2.598 -2.9999 0.0 0
M  V30 15 N -3.4641 -0.4999 0.0 0
M  V30 16 C -4.3301 -1.9999 0.0 0
M  V30 17 C -3.4641 -3.4999 0.0 0
M  V30 18 C -1.732 -3.4999 0.0 0
M  V30 19 C -4.3301 0.0 0.0 0
M  V30 20 C -5.1961 -1.4999 0.0 0
M  V30 21 C -3.4641 -4.4999 0.0 0
M  V30 22 C -1.732 -4.4999 0.0 0
M  V30 23 C -5.1961 -0.4999 0.0 0
M  V30 24 C -2.598 -4.9999 0.0 0
M  V30 25 O -2.598 -5.9999 0.0 0
M  V30 26 S -1.732 -6.4999 0.0 0
M  V30 27 O -2.232 -7.366 0.0 0
M  V30 28 O -1.232 -5.6339 0.0 0
M  V30 29 O -0.866 -7.0 0.0 0
M  V30 END ATOM
M  V30 BEGIN BOND
M  V30 1 2 1 2
M  V30 2 2 1 3
M  V30 3 1 1 4
M  V30 4 1 1 5
M  V30 5 1 4 6
M  V30 6 2 6 7
M  V30 7 1 6 8
M  V30 8 1 7 9
M  V30 9 2 8 10
M  V30 10 2 9 11
M  V30 11 1 11 12
M  V30 12 1 12 13
M  V30 13 1 12 14
M  V30 14 2 13 15
M  V30 15 1 13 16
M  V30 16 2 14 17
M  V30 17 1 14 18
M  V30 18 1 15 19
M  V30 19 2 16 20
M  V30 20 1 17 21
M  V30 21 2 18 22
M  V30 22 2 19 23
M  V30 23 2 21 24
M  V30 24 1 24 25
M  V30 25 1 25 26
M  V30 26 2 26 27
M  V30 27 2 26 28
M  V30 28 1 26 29
M  V30 29 1 10 11
M  V30 30 1 20 23
M  V30 31 1 22 24
M  V30 END BOND
M  V30 END CTAB
M  END
>  <Molecule Name>
_c001

>  <status>
-

>  <cas>
10040-45-6

>  <name>
PICOSULFATE

>  <ID>
1601

>  <Smiles>
OS(Oc1ccc(C(c(cc2)ccc2OS(O)(=O)=O)c2ncccc2)cc1)(=O)=O

$$$$
_c001
Actelion Java MolfileCreator 2.0

  0  0  0  0  0  0              0 V3000
M  V30 BEGIN CTAB
M  V30 COUNTS 25 27 0 0 0
M  V30 BEGIN ATOM
M  V30 1 O 2.598 1.0 0.0 0
M  V30 2 C 2.598 0.0 0.0 0
M  V30 3 N 1.732 -0.5 0.0 0
M  V30 4 N 3.4641 -0.4999 0.0 0
M  V30 5 C 1.732 -1.5 0.0 0
M  V30 6 C 0.866 0.0 0.0 0
M  V30 7 C 3.4641 -1.4999 0.0 0
M  V30 8 C 4.3301 0.0 0.0 0
M  V30 9 N 0.866 -2.0 0.0 0
M  V30 10 C 2.598 -1.9999 0.0 0
M  V30 11 C 0.866 0.9999 0.0 0
M  V30 12 O 4.3301 -1.9999 0.0 0
M  V30 13 C 0.866 -3.0 0.0 0
M  V30 14 C 0.0 -1.5 0.0 0
M  V30 15 C 0.0 1.4999 0.0 0
M  V30 16 C 1.732 1.5 0.0 0
M  V30 17 C 0.0 -3.5 0.0 0 CFG=1
M  V30 18 C -0.866 -2.0 0.0 0
M  V30 19 C -0.866 0.9999 0.0 0
M  V30 20 C 0.0 2.4999 0.0 0
M  V30 21 C 1.732 2.5 0.0 0
M  V30 22 N 0.0 -4.5 0.0 0
M  V30 23 C -0.866 -3.0 0.0 0
M  V30 24 N -1.732 0.4999 0.0 0
M  V30 25 C 0.866 2.9999 0.0 0
M  V30 END ATOM
M  V30 BEGIN BOND
M  V30 1 2 1 2
M  V30 2 1 2 3
M  V30 3 1 2 4
M  V30 4 1 3 5
M  V30 5 1 3 6
M  V30 6 1 4 7
M  V30 7 1 4 8
M  V30 8 1 5 9
M  V30 9 2 5 10
M  V30 10 1 6 11
M  V30 11 2 7 12
M  V30 12 1 9 13
M  V30 13 1 9 14
M  V30 14 2 11 15
M  V30 15 1 11 16
M  V30 16 1 17 13
M  V30 17 1 14 18
M  V30 18 1 15 19
M  V30 19 1 15 20
M  V30 20 2 16 21
M  V30 21 1 17 22 CFG=1
M  V30 22 1 17 23
M  V30 23 3 19 24
M  V30 24 2 20 25
M  V30 25 1 7 10
M  V30 26 1 18 23
M  V30 27 1 21 25
M  V30 END BOND
M  V30 BEGIN COLLECTION
M  V30 MDLV30/STERAC1 ATOMS=(1 17)
M  V30 END COLLECTION
M  V30 END CTAB
M  END
>  <Molecule Name>
_c001

>  <status>
-

>  <cas>
850649-61-5

>  <name>
ALOGLIPTIN

>  <ID>
1602

>  <Smiles>
CN(C(C=C(N1Cc(cccc2)c2C#N)N(CCC2)CC2N)=O)C1=O

$$$$
_c001
Actelion Java MolfileCreator 2.0

  0  0  0  0  0  0              0 V3000
M  V30 BEGIN CTAB
M  V30 COUNTS 31 34 0 0 0
M  V30 BEGIN ATOM
M  V30 1 S 1.8365 -1.4945 0.0 0
M  V30 2 C 2.8147 -1.7024 0.0 0
M  V30 3 C 1.732 -0.5 0.0 0
M  V30 4 C 3.2214 -2.6159 0.0 0
M  V30 5 C 3.3147 -0.8364 0.0 0
M  V30 6 C 2.6455 -0.0932 0.0 0
M  V30 7 C 0.866 0.0 0.0 0
M  V30 8 C 2.6336 -3.4249 0.0 0
M  V30 9 C 4.2159 -2.7205 0.0 0
M  V30 10 C 0.0 -0.5 0.0 0
M  V30 11 C 3.0404 -4.3385 0.0 0
M  V30 12 C 4.6227 -3.634 0.0 0
M  V30 13 C -0.866 0.0 0.0 0
M  V30 14 C 0.0 -1.4999 0.0 0
M  V30 15 C 4.0349 -4.443 0.0 0
M  V30 16 C -1.732 -0.4999 0.0 0
M  V30 17 C -0.866 1.0 0.0 0
M  V30 18 C -0.866 -1.9999 0.0 0
M  V30 19 F 4.4416 -5.3566 0.0 0
M  V30 20 C -1.732 -1.4999 0.0 0
M  V30 21 C -0.866 -2.9999 0.0 0 CFG=1
M  V30 22 O -1.732 -3.4999 0.0 0
M  V30 23 C 0.0 -3.4999 0.0 0 CFG=1
M  V30 24 C -1.732 -4.4999 0.0 0 CFG=2
M  V30 25 O 0.866 -3.0 0.0 0
M  V30 26 C 0.0 -4.5 0.0 0 CFG=1
M  V30 27 C -0.866 -4.9999 0.0 0 CFG=1
M  V30 28 C -2.598 -4.9999 0.0 0
M  V30 29 O 0.866 -5.0 0.0 0
M  V30 30 O -0.866 -5.9999 0.0 0
M  V30 31 O -2.598 -5.9999 0.0 0
M  V30 END ATOM
M  V30 BEGIN BOND
M  V30 1 1 1 2
M  V30 2 1 1 3
M  V30 3 1 2 4
M  V30 4 2 2 5
M  V30 5 2 3 6
M  V30 6 1 3 7
M  V30 7 2 4 8
M  V30 8 1 4 9
M  V30 9 1 7 10
M  V30 10 1 8 11
M  V30 11 2 9 12
M  V30 12 2 10 13
M  V30 13 1 10 14
M  V30 14 2 11 15
M  V30 15 1 13 16
M  V30 16 1 13 17
M  V30 17 2 14 18
M  V30 18 1 15 19
M  V30 19 2 16 20
M  V30 20 1 21 18 CFG=3
M  V30 21 1 21 22
M  V30 22 1 23 21
M  V30 23 1 24 22
M  V30 24 1 23 25 CFG=1
M  V30 25 1 26 23
M  V30 26 1 27 24
M  V30 27 1 24 28 CFG=3
M  V30 28 1 26 29 CFG=3
M  V30 29 1 27 30 CFG=1
M  V30 30 1 28 31
M  V30 31 1 5 6
M  V30 32 1 12 15
M  V30 33 1 18 20
M  V30 34 1 26 27
M  V30 END BOND
M  V30 BEGIN COLLECTION
M  V30 MDLV30/STERAC1 ATOMS=(5 21 23 24 26 27)
M  V30 END COLLECTION
M  V30 END CTAB
M  END
>  <Molecule Name>
_c001

>  <status>
-

>  <cas>
842133-18-0

>  <name>
CANAGLIFLOZIN

>  <ID>
1603

>  <Smiles>
Cc1c(Cc2ccc(-c(cc3)ccc3F)s2)cc([C@H]([C@H]([C@@H]2O)O)O[C@@H](CO)[C@@H]2O)cc1

$$$$
_c001
Actelion Java MolfileCreator 2.0

  0  0  0  0  0  0              0 V3000
M  V30 BEGIN CTAB
M  V30 COUNTS 39 41 0 0 0
M  V30 BEGIN ATOM
M  V30 1 O 4.3301 1.0 0.0 0
M  V30 2 C 5.1961 1.5 0.0 0
M  V30 3 O 6.0621 0.9999 0.0 0
M  V30 4 C 5.1961 2.5 0.0 0
M  V30 5 C 6.0621 0.0 0.0 0
M  V30 6 C 4.3301 3.0 0.0 0
M  V30 7 C 6.9282 -0.5 0.0 0
M  V30 8 C 5.1961 -0.5 0.0 0
M  V30 9 C 4.3301 4.0 0.0 0
M  V30 10 O 7.7942 0.0 0.0 0
M  V30 11 O 4.3301 0.0 0.0 0
M  V30 12 C 3.4641 4.5 0.0 0
M  V30 13 C 8.6602 -0.5 0.0 0
M  V30 14 C 3.4641 -0.5 0.0 0
M  V30 15 C 3.4641 5.5 0.0 0
M  V30 16 C 2.598 4.0 0.0 0
M  V30 17 O 8.6602 -1.4999 0.0 0
M  V30 18 C 9.5262 0.0 0.0 0
M  V30 19 O 3.4641 -1.5 0.0 0
M  V30 20 C 2.598 0.0 0.0 0
M  V30 21 C 2.598 6.0 0.0 0
M  V30 22 C 1.732 4.5 0.0 0
M  V30 23 C 10.3923 -0.5 0.0 0
M  V30 24 C 1.732 -0.5 0.0 0
M  V30 25 C 1.732 5.5 0.0 0
M  V30 26 C 11.2583 0.0 0.0 0
M  V30 27 C 0.866 0.0 0.0 0
M  V30 28 C 12.1243 -0.5 0.0 0
M  V30 29 C 0.0 -0.5 0.0 0
M  V30 30 C 12.1243 -1.5 0.0 0
M  V30 31 C 12.9903 0.0 0.0 0
M  V30 32 C -0.866 0.0 0.0 0
M  V30 33 C 0.0 -1.4999 0.0 0
M  V30 34 C 12.9903 -2.0 0.0 0
M  V30 35 C 13.8564 -0.5 0.0 0
M  V30 36 C -1.732 -0.4999 0.0 0
M  V30 37 C -0.866 -1.9999 0.0 0
M  V30 38 C 13.8564 -1.5 0.0 0
M  V30 39 C -1.732 -1.4999 0.0 0
M  V30 END ATOM
M  V30 BEGIN BOND
M  V30 1 2 1 2
M  V30 2 1 2 3
M  V30 3 1 2 4
M  V30 4 1 3 5
M  V30 5 1 4 6
M  V30 6 1 5 7
M  V30 7 1 5 8
M  V30 8 1 6 9
M  V30 9 1 7 10
M  V30 10 1 8 11
M  V30 11 1 9 12
M  V30 12 1 10 13
M  V30 13 1 11 14
M  V30 14 2 12 15
M  V30 15 1 12 16
M  V30 16 2 13 17
M  V30 17 1 13 18
M  V30 18 2 14 19
M  V30 19 1 14 20
M  V30 20 1 15 21
M  V30 21 2 16 22
M  V30 22 1 18 23
M  V30 23 1 20 24
M  V30 24 2 21 25
M  V30 25 1 23 26
M  V30 26 1 24 27
M  V30 27 1 26 28
M  V30 28 1 27 29
M  V30 29 2 28 30
M  V30 30 1 28 31
M  V30 31 2 29 32
M  V30 32 1 29 33
M  V30 33 1 30 34
M  V30 34 2 31 35
M  V30 35 1 32 36
M  V30 36 2 33 37
M  V30 37 2 34 38
M  V30 38 2 36 39
M  V30 39 1 22 25
M  V30 40 1 35 38
M  V30 41 1 37 39
M  V30 END BOND
M  V30 END CTAB
M  END
>  <Molecule Name>
_c001

>  <status>
-

>  <cas>
611168-24-2

>  <name>
GLYCEROL PHENYLBUTYRATE

>  <ID>
1604

>  <Smiles>
O=C(CCCc1ccccc1)OCC(COC(CCCc1ccccc1)=O)OC(CCCc1ccccc1)=O

$$$$
_c001
Actelion Java MolfileCreator 2.0

  0  0  0  0  0  0              0 V3000
M  V30 BEGIN CTAB
M  V30 COUNTS 32 33 0 0 0
M  V30 BEGIN ATOM
M  V30 1 Cl 18.1865 2.25 0.0 0
M  V30 2 C 19.4855 1.5 0.0 0
M  V30 3 C 19.4855 0.0 0.0 0
M  V30 4 C 20.7846 2.25 0.0 0
M  V30 5 C 20.7846 -0.75 0.0 0
M  V30 6 C 18.1865 -0.75 0.0 0
M  V30 7 C 22.0836 1.5 0.0 0
M  V30 8 Cl 20.7846 -2.25 0.0 0
M  V30 9 C 22.0836 0.0 0.0 0
M  V30 10 O 16.8874 0.0 0.0 0
M  V30 11 C 15.5884 -0.75 0.0 0
M  V30 12 C 14.2894 0.0 0.0 0
M  V30 13 O 12.9903 -0.75 0.0 0
M  V30 14 C 11.6913 0.0 0.0 0
M  V30 15 C 10.3923 -0.75 0.0 0
M  V30 16 C 9.0932 0.0 0.0 0
M  V30 17 C 7.7942 -0.75 0.0 0
M  V30 18 C 6.4951 0.0 0.0 0
M  V30 19 C 5.1961 -0.75 0.0 0
M  V30 20 N 3.8971 0.0 0.0 0
M  V30 21 C 2.598 -0.75 0.0 0
M  V30 22 C 1.299 0.0 0.0 0 CFG=2
M  V30 23 O 1.299 1.5 0.0 0
M  V30 24 C 0.0 -0.75 0.0 0
M  V30 25 C -1.299 0.0 0.0 0
M  V30 26 C 0.0 -2.25 0.0 0
M  V30 27 C -2.598 -0.7499 0.0 0
M  V30 28 C -1.299 -2.9999 0.0 0
M  V30 29 C -2.598 -2.2499 0.0 0
M  V30 30 C -3.8971 0.0 0.0 0
M  V30 31 O -3.8971 -2.9999 0.0 0
M  V30 32 O -5.1961 -0.7499 0.0 0
M  V30 END ATOM
M  V30 BEGIN BOND
M  V30 1 1 1 2
M  V30 2 2 2 3
M  V30 3 1 2 4
M  V30 4 1 3 5
M  V30 5 1 3 6
M  V30 6 2 4 7
M  V30 7 1 5 8
M  V30 8 2 5 9
M  V30 9 1 6 10
M  V30 10 1 10 11
M  V30 11 1 11 12
M  V30 12 1 12 13
M  V30 13 1 13 14
M  V30 14 1 14 15
M  V30 15 1 15 16
M  V30 16 1 16 17
M  V30 17 1 17 18
M  V30 18 1 18 19
M  V30 19 1 19 20
M  V30 20 1 20 21
M  V30 21 1 22 21
M  V30 22 1 22 23 CFG=1
M  V30 23 1 22 24
M  V30 24 2 24 25
M  V30 25 1 24 26
M  V30 26 1 25 27
M  V30 27 2 26 28
M  V30 28 2 27 29
M  V30 29 1 27 30
M  V30 30 1 29 31
M  V30 31 1 30 32
M  V30 32 1 7 9
M  V30 33 1 28 29
M  V30 END BOND
M  V30 BEGIN COLLECTION
M  V30 MDLV30/STERAC1 ATOMS=(1 22)
M  V30 END COLLECTION
M  V30 END CTAB
M  END
>  <Molecule Name>
_c001

>  <status>
-

>  <cas>
503068-34-6

>  <name>
VILANTEROL

>  <ID>
1605

>  <Smiles>
OCc(cc(C(CNCCCCCCOCCOCc(c(Cl)ccc1)c1Cl)O)cc1)c1O

$$$$
_c001
Actelion Java MolfileCreator 2.0

  0  0  0  0  0  0              0 V3000
M  V30 BEGIN CTAB
M  V30 COUNTS 16 16 0 0 0
M  V30 BEGIN ATOM
M  V30 1 O 1.732 -1.5 0.0 0
M  V30 2 C 1.732 -0.5 0.0 0
M  V30 3 O 2.598 0.0 0.0 0
M  V30 4 N 0.866 0.0 0.0 0
M  V30 5 C 3.4641 -0.5 0.0 0
M  V30 6 C 0.866 1.0 0.0 0
M  V30 7 C 0.0 -0.5 0.0 0
M  V30 8 C 3.4641 -1.5 0.0 0
M  V30 9 C 4.3301 0.0 0.0 0
M  V30 10 C 4.3301 -2.0 0.0 0
M  V30 11 C 5.1961 -0.5 0.0 0
M  V30 12 N 4.3301 -3.0 0.0 0 CHG=1
M  V30 13 C 5.1961 -1.5 0.0 0
M  V30 14 C 5.3301 -3.0 0.0 0
M  V30 15 C 4.3301 -4.0 0.0 0
M  V30 16 C 3.3301 -3.0 0.0 0
M  V30 END ATOM
M  V30 BEGIN BOND
M  V30 1 2 1 2
M  V30 2 1 2 3
M  V30 3 1 2 4
M  V30 4 1 3 5
M  V30 5 1 4 6
M  V30 6 1 4 7
M  V30 7 2 5 8
M  V30 8 1 5 9
M  V30 9 1 8 10
M  V30 10 2 9 11
M  V30 11 1 10 12
M  V30 12 2 10 13
M  V30 13 1 12 14
M  V30 14 1 12 15
M  V30 15 1 12 16
M  V30 16 1 11 13
M  V30 END BOND
M  V30 END CTAB
M  END
>  <Molecule Name>
_c001

>  <status>
-

>  <cas>
59-99-4

>  <name>
NEOSTIGMINE

>  <ID>
1606

>  <Smiles>
CN(C)C(Oc1cc([N+](C)(C)C)ccc1)=O

$$$$
_c001
Actelion Java MolfileCreator 2.0

  0  0  0  0  0  0              0 V3000
M  V30 BEGIN CTAB
M  V30 COUNTS 10 10 0 0 0
M  V30 BEGIN ATOM
M  V30 1 O 3.8971 0.0 0.0 0
M  V30 2 C 2.598 -0.75 0.0 0
M  V30 3 O 2.598 -2.25 0.0 0 CHG=-1
M  V30 4 C 1.299 0.0 0.0 0
M  V30 5 C 0.0 -0.75 0.0 0
M  V30 6 C -1.299 0.0 0.0 0
M  V30 7 C 0.0 -2.25 0.0 0
M  V30 8 C -2.598 -0.7499 0.0 0
M  V30 9 C -1.299 -2.9999 0.0 0
M  V30 10 C -2.598 -2.2499 0.0 0
M  V30 END ATOM
M  V30 BEGIN BOND
M  V30 1 2 1 2
M  V30 2 1 2 3
M  V30 3 1 2 4
M  V30 4 1 4 5
M  V30 5 2 5 6
M  V30 6 1 5 7
M  V30 7 1 6 8
M  V30 8 2 7 9
M  V30 9 2 8 10
M  V30 10 1 9 10
M  V30 END BOND
M  V30 END CTAB
M  END
>  <Molecule Name>
_c001

>  <status>
-

>  <cas>
7631-42-7

>  <name>
PHENYLACETATE

>  <ID>
1607

>  <Smiles>
[O-]C(Cc1ccccc1)=O

$$$$
_c001
Actelion Java MolfileCreator 2.0

  0  0  0  0  0  0              0 V3000
M  V30 BEGIN CTAB
M  V30 COUNTS 21 23 0 0 0
M  V30 BEGIN ATOM
M  V30 1 O 4.3301 -1.9999 0.0 0
M  V30 2 C 3.4641 -1.4999 0.0 0
M  V30 3 C 3.4641 -0.5 0.0 0
M  V30 4 C 2.598 -1.9999 0.0 0
M  V30 5 C 2.598 0.0 0.0 0
M  V30 6 C 1.732 -1.5 0.0 0
M  V30 7 C 1.732 -0.5 0.0 0
M  V30 8 C 0.866 0.0 0.0 0
M  V30 9 C 0.866 1.0 0.0 0
M  V30 10 C 0.0 -0.5 0.0 0
M  V30 11 N 1.732 1.4999 0.0 0
M  V30 12 C 0.0 1.4999 0.0 0
M  V30 13 C -0.866 0.0 0.0 0
M  V30 14 C 0.0 -1.4999 0.0 0
M  V30 15 C 1.732 2.5 0.0 0
M  V30 16 C 0.0 2.5 0.0 0
M  V30 17 C -1.732 -0.4999 0.0 0
M  V30 18 C -0.866 -1.9999 0.0 0
M  V30 19 C 0.866 3.0 0.0 0
M  V30 20 C -1.732 -1.4999 0.0 0
M  V30 21 O -2.598 -1.9999 0.0 0
M  V30 END ATOM
M  V30 BEGIN BOND
M  V30 1 1 1 2
M  V30 2 2 2 3
M  V30 3 1 2 4
M  V30 4 1 3 5
M  V30 5 2 4 6
M  V30 6 2 5 7
M  V30 7 1 7 8
M  V30 8 1 8 9
M  V30 9 1 8 10
M  V30 10 2 9 11
M  V30 11 1 9 12
M  V30 12 2 10 13
M  V30 13 1 10 14
M  V30 14 1 11 15
M  V30 15 2 12 16
M  V30 16 1 13 17
M  V30 17 2 14 18
M  V30 18 2 15 19
M  V30 19 2 17 20
M  V30 20 1 20 21
M  V30 21 1 6 7
M  V30 22 1 16 19
M  V30 23 1 18 20
M  V30 END BOND
M  V30 END CTAB
M  END
>  <Molecule Name>
_c001

>  <status>
-

>  <cas>
603-41-8

>  <name>
M PICOSULFATE

>  <ID>
1608

>  <Smiles>
Oc1ccc(C(c(cc2)ccc2O)c2ncccc2)cc1

$$$$
_c001
Actelion Java MolfileCreator 2.0

  0  0  0  0  0  0              0 V3000
M  V30 BEGIN CTAB
M  V30 COUNTS 21 22 0 0 0
M  V30 BEGIN ATOM
M  V30 1 F 6.4282 2.366 0.0 0
M  V30 2 C 6.9282 1.4999 0.0 0
M  V30 3 F 7.7942 1.9999 0.0 0
M  V30 4 F 7.4282 0.6339 0.0 0
M  V30 5 C 6.0621 0.9999 0.0 0
M  V30 6 C 5.1961 1.4999 0.0 0
M  V30 7 C 6.0621 0.0 0.0 0
M  V30 8 C 4.3301 0.9999 0.0 0
M  V30 9 C 5.1961 -0.5 0.0 0
M  V30 10 C 4.3301 0.0 0.0 0
M  V30 11 O 3.4641 -0.5 0.0 0
M  V30 12 C 2.598 0.0 0.0 0 CFG=2
M  V30 13 C 2.598 1.0 0.0 0
M  V30 14 C 1.732 -0.5 0.0 0
M  V30 15 C 3.4641 1.5 0.0 0
M  V30 16 C 1.732 1.4999 0.0 0
M  V30 17 C 0.866 0.0 0.0 0
M  V30 18 C 3.4641 2.5 0.0 0
M  V30 19 C 1.732 2.5 0.0 0
M  V30 20 N 0.0 -0.5 0.0 0
M  V30 21 C 2.598 3.0 0.0 0
M  V30 END ATOM
M  V30 BEGIN BOND
M  V30 1 1 1 2
M  V30 2 1 2 3
M  V30 3 1 2 4
M  V30 4 1 2 5
M  V30 5 2 5 6
M  V30 6 1 5 7
M  V30 7 1 6 8
M  V30 8 2 7 9
M  V30 9 2 8 10
M  V30 10 1 10 11
M  V30 11 1 12 11 CFG=1
M  V30 12 1 12 13
M  V30 13 1 12 14
M  V30 14 2 13 15
M  V30 15 1 13 16
M  V30 16 1 14 17
M  V30 17 1 15 18
M  V30 18 2 16 19
M  V30 19 1 17 20
M  V30 20 2 18 21
M  V30 21 1 9 10
M  V30 22 1 19 21
M  V30 END BOND
M  V30 BEGIN COLLECTION
M  V30 MDLV30/STERAC1 ATOMS=(1 12)
M  V30 END COLLECTION
M  V30 END CTAB
M  END
>  <Molecule Name>
_c001

>  <status>
-

>  <cas>
83891-03-6

>  <name>
NORFLUOXETINE

>  <ID>
1609

>  <Smiles>
NCCC(c1ccccc1)Oc1ccc(C(F)(F)F)cc1

$$$$
_c001
Actelion Java MolfileCreator 2.0

  0  0  0  0  0  0              0 V3000
M  V30 BEGIN CTAB
M  V30 COUNTS 21 22 0 0 0
M  V30 BEGIN ATOM
M  V30 1 F 6.4282 2.366 0.0 0
M  V30 2 C 6.9282 1.4999 0.0 0
M  V30 3 F 7.7942 1.9999 0.0 0
M  V30 4 F 7.4282 0.6339 0.0 0
M  V30 5 C 6.0621 0.9999 0.0 0
M  V30 6 C 5.1961 1.4999 0.0 0
M  V30 7 C 6.0621 0.0 0.0 0
M  V30 8 C 4.3301 0.9999 0.0 0
M  V30 9 C 5.1961 -0.5 0.0 0
M  V30 10 C 4.3301 0.0 0.0 0
M  V30 11 O 3.4641 -0.5 0.0 0
M  V30 12 C 2.598 0.0 0.0 0 CFG=2
M  V30 13 C 2.598 1.0 0.0 0
M  V30 14 C 1.732 -0.5 0.0 0
M  V30 15 C 3.4641 1.5 0.0 0
M  V30 16 C 1.732 1.4999 0.0 0
M  V30 17 C 0.866 0.0 0.0 0
M  V30 18 C 3.4641 2.5 0.0 0
M  V30 19 C 1.732 2.5 0.0 0
M  V30 20 N 0.0 -0.5 0.0 0
M  V30 21 C 2.598 3.0 0.0 0
M  V30 END ATOM
M  V30 BEGIN BOND
M  V30 1 1 1 2
M  V30 2 1 2 3
M  V30 3 1 2 4
M  V30 4 1 2 5
M  V30 5 2 5 6
M  V30 6 1 5 7
M  V30 7 1 6 8
M  V30 8 2 7 9
M  V30 9 2 8 10
M  V30 10 1 10 11
M  V30 11 1 12 11 CFG=1
M  V30 12 1 12 13
M  V30 13 1 12 14
M  V30 14 2 13 15
M  V30 15 1 13 16
M  V30 16 1 14 17
M  V30 17 1 15 18
M  V30 18 2 16 19
M  V30 19 1 17 20
M  V30 20 2 18 21
M  V30 21 1 9 10
M  V30 22 1 19 21
M  V30 END BOND
M  V30 BEGIN COLLECTION
M  V30 MDLV30/STERAC1 ATOMS=(1 12)
M  V30 END COLLECTION
M  V30 END CTAB
M  END
>  <Molecule Name>
_c001

>  <status>
-

>  <cas>
83891-03-6

>  <name>
NORFLUOXETINE

>  <ID>
1610

>  <Smiles>
NCCC(c1ccccc1)Oc1ccc(C(F)(F)F)cc1

$$$$
_c001
Actelion Java MolfileCreator 2.0

  0  0  0  0  0  0              0 V3000
M  V30 BEGIN CTAB
M  V30 COUNTS 22 22 0 0 0
M  V30 BEGIN ATOM
M  V30 1 O 10.3923 1.4999 0.0 0
M  V30 2 C 9.5262 0.9999 0.0 0
M  V30 3 N 8.6602 1.4999 0.0 0
M  V30 4 C 9.5262 0.0 0.0 0
M  V30 5 C 7.7942 0.9999 0.0 0
M  V30 6 C 6.9282 1.4999 0.0 0
M  V30 7 C 7.7942 0.0 0.0 0
M  V30 8 C 6.0621 1.0 0.0 0
M  V30 9 C 6.9282 -0.5 0.0 0
M  V30 10 C 6.0621 0.0 0.0 0
M  V30 11 C 5.1961 1.5 0.0 0
M  V30 12 O 5.1961 -0.5 0.0 0
M  V30 13 O 5.1961 2.5 0.0 0
M  V30 14 C 4.3301 1.0 0.0 0
M  V30 15 C 4.3301 0.0 0.0 0
M  V30 16 C 3.4641 -0.5 0.0 0 CFG=1
M  V30 17 O 3.4641 -1.5 0.0 0
M  V30 18 C 2.598 0.0 0.0 0
M  V30 19 N 1.732 -0.5 0.0 0
M  V30 20 C 0.866 0.0 0.0 0
M  V30 21 C 0.866 1.0 0.0 0
M  V30 22 C 0.0 -0.5 0.0 0
M  V30 END ATOM
M  V30 BEGIN BOND
M  V30 1 2 1 2
M  V30 2 1 2 3
M  V30 3 1 2 4
M  V30 4 1 3 5
M  V30 5 2 5 6
M  V30 6 1 5 7
M  V30 7 1 6 8
M  V30 8 2 7 9
M  V30 9 2 8 10
M  V30 10 1 8 11
M  V30 11 1 10 12
M  V30 12 2 11 13
M  V30 13 1 11 14
M  V30 14 1 12 15
M  V30 15 1 16 15
M  V30 16 1 16 17 CFG=1
M  V30 17 1 16 18
M  V30 18 1 18 19
M  V30 19 1 19 20
M  V30 20 1 20 21
M  V30 21 1 20 22
M  V30 22 1 9 10
M  V30 END BOND
M  V30 BEGIN COLLECTION
M  V30 MDLV30/STERAC1 ATOMS=(1 16)
M  V30 END COLLECTION
M  V30 END CTAB
M  END
>  <Molecule Name>
_c001

>  <status>
-

>  <cas>
22568-64-5

>  <name>
DIACETOLOL

>  <ID>
1611

>  <Smiles>
CC(C)NCC(COc(ccc(NC(C)=O)c1)c1C(C)=O)O

$$$$
_c001
Actelion Java MolfileCreator 2.0

  0  0  0  0  0  0              0 V3000
M  V30 BEGIN CTAB
M  V30 COUNTS 22 22 0 0 0
M  V30 BEGIN ATOM
M  V30 1 O 10.3923 1.4999 0.0 0
M  V30 2 C 9.5262 0.9999 0.0 0
M  V30 3 N 8.6602 1.4999 0.0 0
M  V30 4 C 9.5262 0.0 0.0 0
M  V30 5 C 7.7942 0.9999 0.0 0
M  V30 6 C 6.9282 1.4999 0.0 0
M  V30 7 C 7.7942 0.0 0.0 0
M  V30 8 C 6.0621 1.0 0.0 0
M  V30 9 C 6.9282 -0.5 0.0 0
M  V30 10 C 6.0621 0.0 0.0 0
M  V30 11 C 5.1961 1.5 0.0 0
M  V30 12 O 5.1961 -0.5 0.0 0
M  V30 13 O 5.1961 2.5 0.0 0
M  V30 14 C 4.3301 1.0 0.0 0
M  V30 15 C 4.3301 0.0 0.0 0
M  V30 16 C 3.4641 -0.5 0.0 0 CFG=1
M  V30 17 O 3.4641 -1.5 0.0 0
M  V30 18 C 2.598 0.0 0.0 0
M  V30 19 N 1.732 -0.5 0.0 0
M  V30 20 C 0.866 0.0 0.0 0
M  V30 21 C 0.866 1.0 0.0 0
M  V30 22 C 0.0 -0.5 0.0 0
M  V30 END ATOM
M  V30 BEGIN BOND
M  V30 1 2 1 2
M  V30 2 1 2 3
M  V30 3 1 2 4
M  V30 4 1 3 5
M  V30 5 2 5 6
M  V30 6 1 5 7
M  V30 7 1 6 8
M  V30 8 2 7 9
M  V30 9 2 8 10
M  V30 10 1 8 11
M  V30 11 1 10 12
M  V30 12 2 11 13
M  V30 13 1 11 14
M  V30 14 1 12 15
M  V30 15 1 16 15
M  V30 16 1 16 17 CFG=1
M  V30 17 1 16 18
M  V30 18 1 18 19
M  V30 19 1 19 20
M  V30 20 1 20 21
M  V30 21 1 20 22
M  V30 22 1 9 10
M  V30 END BOND
M  V30 BEGIN COLLECTION
M  V30 MDLV30/STERAC1 ATOMS=(1 16)
M  V30 END COLLECTION
M  V30 END CTAB
M  END
>  <Molecule Name>
_c001

>  <status>
-

>  <cas>
22568-64-5

>  <name>
DIACETOLOL

>  <ID>
1612

>  <Smiles>
CC(C)NCC(COc(ccc(NC(C)=O)c1)c1C(C)=O)O

$$$$
_c001
Actelion Java MolfileCreator 2.0

  0  0  0  0  0  0              0 V3000
M  V30 BEGIN CTAB
M  V30 COUNTS 9 9 0 0 0
M  V30 BEGIN ATOM
M  V30 1 O 2.598 -0.75 0.0 0
M  V30 2 C 1.299 0.0 0.0 0
M  V30 3 O 1.299 1.5 0.0 0 CHG=-1
M  V30 4 C 0.0 -0.75 0.0 0
M  V30 5 N -1.299 0.0 0.0 0
M  V30 6 C 0.0 -2.25 0.0 0
M  V30 7 C -2.598 -0.7499 0.0 0
M  V30 8 N -1.299 -2.9999 0.0 0
M  V30 9 C -2.598 -2.2499 0.0 0
M  V30 END ATOM
M  V30 BEGIN BOND
M  V30 1 2 1 2
M  V30 2 1 2 3
M  V30 3 1 2 4
M  V30 4 2 4 5
M  V30 5 1 4 6
M  V30 6 1 5 7
M  V30 7 2 6 8
M  V30 8 2 7 9
M  V30 9 1 8 9
M  V30 END BOND
M  V30 END CTAB
M  END
>  <Molecule Name>
_c001

>  <status>
-

>  <cas>
98-97-5

>  <name>
PYRAZINOIC ACID

>  <ID>
1613

>  <Smiles>
[O-]C(c1nccnc1)=O

$$$$
_c001
Actelion Java MolfileCreator 2.0

  0  0  0  0  0  0              0 V3000
M  V30 BEGIN CTAB
M  V30 COUNTS 31 34 0 0 0
M  V30 BEGIN ATOM
M  V30 1 F 15.9426 -3.0342 0.0 0
M  V30 2 C 15.3325 -4.4045 0.0 0
M  V30 3 C 13.8407 -4.5613 0.0 0
M  V30 4 C 16.2142 -5.618 0.0 0
M  V30 5 C 13.2306 -5.9316 0.0 0
M  V30 6 C 12.959 -3.3478 0.0 0
M  V30 7 C 15.604 -6.9883 0.0 0
M  V30 8 C 14.1123 -7.1451 0.0 0
M  V30 9 N 11.4672 -3.5046 0.0 0
M  V30 10 N 10.4635 -2.3898 0.0 0
M  V30 11 C 10.7172 -4.8036 0.0 0
M  V30 12 C 9.0932 -3.0 0.0 0
M  V30 13 N 11.1808 -6.2302 0.0 0
M  V30 14 C 9.25 -4.4917 0.0 0
M  V30 15 C 7.7942 -2.25 0.0 0
M  V30 16 C 10.1771 -7.3449 0.0 0
M  V30 17 C 8.2463 -5.6065 0.0 0
M  V30 18 N 7.7942 -0.75 0.0 0
M  V30 19 N 6.4951 -2.9999 0.0 0
M  V30 20 C 8.7098 -7.033 0.0 0
M  V30 21 C 6.4951 0.0 0.0 0
M  V30 22 C 5.1961 -2.25 0.0 0
M  V30 23 N 6.4951 1.5 0.0 0
M  V30 24 C 5.1961 -0.75 0.0 0
M  V30 25 N 3.8971 -3.0 0.0 0
M  V30 26 N 3.8971 0.0 0.0 0
M  V30 27 C 2.598 -0.75 0.0 0
M  V30 28 C 3.8971 1.5 0.0 0
M  V30 29 O 2.598 -2.25 0.0 0
M  V30 30 O 1.299 0.0 0.0 0
M  V30 31 C 0.0 -0.75 0.0 0
M  V30 END ATOM
M  V30 BEGIN BOND
M  V30 1 1 1 2
M  V30 2 2 2 3
M  V30 3 1 2 4
M  V30 4 1 3 5
M  V30 5 1 3 6
M  V30 6 2 4 7
M  V30 7 2 5 8
M  V30 8 1 6 9
M  V30 9 1 9 10
M  V30 10 1 9 11
M  V30 11 2 10 12
M  V30 12 2 11 13
M  V30 13 1 11 14
M  V30 14 1 12 15
M  V30 15 1 13 16
M  V30 16 2 14 17
M  V30 17 2 15 18
M  V30 18 1 15 19
M  V30 19 2 16 20
M  V30 20 1 18 21
M  V30 21 2 19 22
M  V30 22 1 21 23
M  V30 23 2 21 24
M  V30 24 1 22 25
M  V30 25 1 24 26
M  V30 26 1 26 27
M  V30 27 1 26 28
M  V30 28 2 27 29
M  V30 29 1 27 30
M  V30 30 1 30 31
M  V30 31 1 7 8
M  V30 32 1 12 14
M  V30 33 1 17 20
M  V30 34 1 22 24
M  V30 END BOND
M  V30 END CTAB
M  END
>  <Molecule Name>
_c001

>  <status>
-

>  <cas>
625115-55-1

>  <name>
RIOCIGUAT

>  <ID>
1614

>  <Smiles>
CN(C(OC)=O)c1c(N)nc(-c2nn(Cc(cccc3)c3F)c3ncccc23)nc1N

$$$$
_c001
Actelion Java MolfileCreator 2.0

  0  0  0  0  0  0              0 V3000
M  V30 BEGIN CTAB
M  V30 COUNTS 32 34 0 0 0
M  V30 BEGIN ATOM
M  V30 1 Br 6.4951 -13.5 0.0 0
M  V30 2 C 6.4951 -12.0 0.0 0
M  V30 3 C 7.7942 -11.25 0.0 0
M  V30 4 C 5.1961 -11.25 0.0 0
M  V30 5 N 7.7942 -9.75 0.0 0
M  V30 6 N 5.1961 -9.75 0.0 0
M  V30 7 C 6.4951 -9.0 0.0 0
M  V30 8 O 6.4951 -7.5 0.0 0
M  V30 9 C 7.7942 -6.75 0.0 0
M  V30 10 C 7.7942 -5.25 0.0 0
M  V30 11 O 9.0932 -4.5 0.0 0
M  V30 12 C 9.0932 -3.0 0.0 0
M  V30 13 N 10.3923 -2.25 0.0 0
M  V30 14 C 7.7942 -2.25 0.0 0
M  V30 15 C 10.3923 -0.75 0.0 0
M  V30 16 C 7.7942 -0.75 0.0 0
M  V30 17 C 6.4951 -3.0 0.0 0
M  V30 18 N 9.0932 0.0 0.0 0
M  V30 19 N 6.4951 0.0 0.0 0
M  V30 20 C 5.1961 -2.25 0.0 0
M  V30 21 C 6.4951 -4.5 0.0 0
M  V30 22 S 6.4951 1.5 0.0 0
M  V30 23 C 3.8971 -3.0 0.0 0
M  V30 24 C 5.1961 -5.25 0.0 0
M  V30 25 O 7.2451 2.799 0.0 0
M  V30 26 O 7.9951 1.4999 0.0 0
M  V30 27 N 5.1961 2.25 0.0 0
M  V30 28 C 3.8971 -4.5 0.0 0
M  V30 29 C 5.1961 3.75 0.0 0
M  V30 30 Br 2.598 -5.25 0.0 0
M  V30 31 C 3.8971 4.5 0.0 0
M  V30 32 C 3.8971 6.0 0.0 0
M  V30 END ATOM
M  V30 BEGIN BOND
M  V30 1 1 1 2
M  V30 2 2 2 3
M  V30 3 1 2 4
M  V30 4 1 3 5
M  V30 5 2 4 6
M  V30 6 2 5 7
M  V30 7 1 7 8
M  V30 8 1 8 9
M  V30 9 1 9 10
M  V30 10 1 10 11
M  V30 11 1 11 12
M  V30 12 2 12 13
M  V30 13 1 12 14
M  V30 14 1 13 15
M  V30 15 2 14 16
M  V30 16 1 14 17
M  V30 17 2 15 18
M  V30 18 1 16 19
M  V30 19 2 17 20
M  V30 20 1 17 21
M  V30 21 1 19 22
M  V30 22 1 20 23
M  V30 23 2 21 24
M  V30 24 2 22 25
M  V30 25 2 22 26
M  V30 26 1 22 27
M  V30 27 2 23 28
M  V30 28 1 27 29
M  V30 29 1 28 30
M  V30 30 1 29 31
M  V30 31 1 31 32
M  V30 32 1 6 7
M  V30 33 1 16 18
M  V30 34 1 24 28
M  V30 END BOND
M  V30 END CTAB
M  END
>  <Molecule Name>
_c001

>  <status>
-

>  <cas>
441798-33-0

>  <name>
MACITENTAN

>  <ID>
1615

>  <Smiles>
CCCNS(Nc1c(-c(cc2)ccc2Br)c(OCCOc(nc2)ncc2Br)ncn1)(=O)=O

$$$$
_c001
Actelion Java MolfileCreator 2.0

  0  0  0  0  0  0              0 V3000
M  V30 BEGIN CTAB
M  V30 COUNTS 29 31 0 0 0
M  V30 BEGIN ATOM
M  V30 1 Br 6.9282 1.4999 0.0 0
M  V30 2 C 6.0621 0.9999 0.0 0
M  V30 3 C 5.1961 1.4999 0.0 0
M  V30 4 C 6.0621 0.0 0.0 0
M  V30 5 N 4.3301 0.9999 0.0 0
M  V30 6 N 5.1961 -0.5 0.0 0
M  V30 7 C 4.3301 0.0 0.0 0
M  V30 8 O 3.4641 -0.5 0.0 0
M  V30 9 C 2.598 0.0 0.0 0
M  V30 10 C 1.732 -0.5 0.0 0
M  V30 11 O 0.866 0.0 0.0 0
M  V30 12 C 0.0 -0.5 0.0 0
M  V30 13 N -0.866 0.0 0.0 0
M  V30 14 C 0.0 -1.4999 0.0 0
M  V30 15 C -1.732 -0.4999 0.0 0
M  V30 16 C -0.866 -1.9999 0.0 0
M  V30 17 C 0.866 -2.0 0.0 0
M  V30 18 N -1.732 -1.4999 0.0 0
M  V30 19 N -0.866 -2.9999 0.0 0
M  V30 20 C 0.866 -3.0 0.0 0
M  V30 21 C 1.732 -1.5 0.0 0
M  V30 22 S -1.732 -3.4999 0.0 0
M  V30 23 C 1.732 -3.5 0.0 0
M  V30 24 C 2.598 -2.0 0.0 0
M  V30 25 O -1.232 -4.366 0.0 0
M  V30 26 O -2.232 -2.6339 0.0 0
M  V30 27 N -2.598 -3.9999 0.0 0
M  V30 28 C 2.598 -3.0 0.0 0
M  V30 29 Br 3.4641 -3.5 0.0 0
M  V30 END ATOM
M  V30 BEGIN BOND
M  V30 1 1 1 2
M  V30 2 2 2 3
M  V30 3 1 2 4
M  V30 4 1 3 5
M  V30 5 2 4 6
M  V30 6 2 5 7
M  V30 7 1 7 8
M  V30 8 1 8 9
M  V30 9 1 9 10
M  V30 10 1 10 11
M  V30 11 1 11 12
M  V30 12 2 12 13
M  V30 13 1 12 14
M  V30 14 1 13 15
M  V30 15 2 14 16
M  V30 16 1 14 17
M  V30 17 2 15 18
M  V30 18 1 16 19
M  V30 19 2 17 20
M  V30 20 1 17 21
M  V30 21 1 19 22
M  V30 22 1 20 23
M  V30 23 2 21 24
M  V30 24 2 22 25
M  V30 25 2 22 26
M  V30 26 1 22 27
M  V30 27 2 23 28
M  V30 28 1 28 29
M  V30 29 1 6 7
M  V30 30 1 16 18
M  V30 31 1 24 28
M  V30 END BOND
M  V30 END CTAB
M  END
>  <Molecule Name>
_c001

>  <status>
-

>  <cas>
1103522-45-7

>  <name>
M MACITENTAN

>  <ID>
1616

>  <Smiles>
NS(Nc1c(-c(cc2)ccc2Br)c(OCCOc(nc2)ncc2Br)ncn1)(=O)=O

$$$$
_c001
Actelion Java MolfileCreator 2.0

  0  0  0  0  0  0              0 V3000
M  V30 BEGIN CTAB
M  V30 COUNTS 21 23 0 0 0
M  V30 BEGIN ATOM
M  V30 1 S 1.299 0.0 0.0 0
M  V30 2 C 2.598 -0.75 0.0 0
M  V30 3 C 1.299 1.4999 0.0 0
M  V30 4 C 2.598 -2.25 0.0 0
M  V30 5 C 3.8971 0.0 0.0 0
M  V30 6 C 2.598 2.2499 0.0 0
M  V30 7 C 0.0 2.25 0.0 0
M  V30 8 N 1.299 -2.9999 0.0 0
M  V30 9 C 3.8971 -3.0 0.0 0
M  V30 10 C 5.1961 -0.75 0.0 0
M  V30 11 C 2.598 3.7499 0.0 0
M  V30 12 C 3.8971 1.4999 0.0 0
M  V30 13 C 0.0 3.75 0.0 0
M  V30 14 C 0.0 -2.2499 0.0 0
M  V30 15 C 1.299 -4.4999 0.0 0
M  V30 16 C 5.1961 -2.25 0.0 0
M  V30 17 C 1.299 4.5 0.0 0
M  V30 18 C -1.299 -2.9999 0.0 0
M  V30 19 C 0.0 -5.2499 0.0 0
M  V30 20 C 1.299 6.0 0.0 0
M  V30 21 N -1.299 -4.4999 0.0 0
M  V30 END ATOM
M  V30 BEGIN BOND
M  V30 1 1 1 2
M  V30 2 1 1 3
M  V30 3 2 2 4
M  V30 4 1 2 5
M  V30 5 2 3 6
M  V30 6 1 3 7
M  V30 7 1 4 8
M  V30 8 1 4 9
M  V30 9 2 5 10
M  V30 10 1 6 11
M  V30 11 1 6 12
M  V30 12 2 7 13
M  V30 13 1 8 14
M  V30 14 1 8 15
M  V30 15 2 9 16
M  V30 16 2 11 17
M  V30 17 1 14 18
M  V30 18 1 15 19
M  V30 19 1 17 20
M  V30 20 1 18 21
M  V30 21 1 10 16
M  V30 22 1 13 17
M  V30 23 1 19 21
M  V30 END BOND
M  V30 END CTAB
M  END
>  <Molecule Name>
_c001

>  <status>
-

>  <cas>
508233-74-7

>  <name>
VORTIOXETINE

>  <ID>
1617

>  <Smiles>
Cc(cc1)cc(C)c1Sc(cccc1)c1N1CCNCC1

$$$$
_c001
Actelion Java MolfileCreator 2.0

  0  0  0  0  0  0              0 V3000
M  V30 BEGIN CTAB
M  V30 COUNTS 34 37 0 0 0
M  V30 BEGIN ATOM
M  V30 1 Cl 15.5884 -6.75 0.0 0
M  V30 2 C 15.5884 -5.25 0.0 0
M  V30 3 C 16.8874 -4.5 0.0 0
M  V30 4 C 14.2894 -4.5 0.0 0
M  V30 5 F 18.1865 -5.25 0.0 0
M  V30 6 C 16.8874 -3.0 0.0 0
M  V30 7 C 14.2894 -3.0 0.0 0
M  V30 8 C 15.5884 -2.25 0.0 0
M  V30 9 N 12.9903 -2.25 0.0 0
M  V30 10 C 12.9903 -0.75 0.0 0
M  V30 11 N 14.2894 0.0 0.0 0
M  V30 12 C 11.6913 0.0 0.0 0
M  V30 13 C 14.2894 1.4999 0.0 0
M  V30 14 C 11.6913 1.4999 0.0 0
M  V30 15 C 10.3923 -0.75 0.0 0
M  V30 16 N 12.9903 2.2499 0.0 0
M  V30 17 C 10.3923 2.2499 0.0 0
M  V30 18 C 9.0932 0.0 0.0 0
M  V30 19 C 9.0932 1.4999 0.0 0
M  V30 20 N 7.7942 -0.75 0.0 0
M  V30 21 O 7.7942 2.25 0.0 0
M  V30 22 C 7.7942 -2.25 0.0 0
M  V30 23 C 6.4951 1.5 0.0 0 CFG=2
M  V30 24 O 9.0932 -3.0 0.0 0
M  V30 25 C 6.4951 -2.9999 0.0 0
M  V30 26 C 5.1248 2.1101 0.0 0
M  V30 27 C 6.3383 0.0082 0.0 0
M  V30 28 C 6.4951 -4.5 0.0 0
M  V30 29 O 4.1211 0.9953 0.0 0
M  V30 30 C 4.8711 -0.3036 0.0 0
M  V30 31 C 5.1961 -5.25 0.0 0
M  V30 32 N 5.1961 -6.75 0.0 0
M  V30 33 C 6.4951 -7.5 0.0 0
M  V30 34 C 3.8971 -7.4999 0.0 0
M  V30 END ATOM
M  V30 BEGIN BOND
M  V30 1 1 1 2
M  V30 2 2 2 3
M  V30 3 1 2 4
M  V30 4 1 3 5
M  V30 5 1 3 6
M  V30 6 2 4 7
M  V30 7 2 6 8
M  V30 8 1 7 9
M  V30 9 1 9 10
M  V30 10 2 10 11
M  V30 11 1 10 12
M  V30 12 1 11 13
M  V30 13 1 12 14
M  V30 14 2 12 15
M  V30 15 2 13 16
M  V30 16 2 14 17
M  V30 17 1 15 18
M  V30 18 1 17 19
M  V30 19 1 18 20
M  V30 20 1 19 21
M  V30 21 1 20 22
M  V30 22 1 23 21 CFG=1
M  V30 23 2 22 24
M  V30 24 1 22 25
M  V30 25 1 23 26
M  V30 26 1 23 27
M  V30 27 2 25 28
M  V30 28 1 26 29
M  V30 29 1 27 30
M  V30 30 1 28 31
M  V30 31 1 31 32
M  V30 32 1 32 33
M  V30 33 1 32 34
M  V30 34 1 7 8
M  V30 35 1 14 16
M  V30 36 2 18 19
M  V30 37 1 29 30
M  V30 END BOND
M  V30 BEGIN COLLECTION
M  V30 MDLV30/STERAC1 ATOMS=(1 23)
M  V30 END COLLECTION
M  V30 END CTAB
M  END
>  <Molecule Name>
_c001

>  <status>
-

>  <cas>
850140-72-6

>  <name>
AFATINIB

>  <ID>
1618

>  <Smiles>
CN(C)C/C=C/C(Nc(cc1c(Nc(cc2)cc(Cl)c2F)ncnc1c1)c1OC1COCC1)=O

$$$$
_c001
Actelion Java MolfileCreator 2.0

  0  0  0  0  0  0              0 V3000
M  V30 BEGIN CTAB
M  V30 COUNTS 18 19 0 0 0
M  V30 BEGIN ATOM
M  V30 1 O 2.6294 -0.7726 0.0 0
M  V30 2 C 3.9013 0.0 0.0 0
M  V30 3 N 5.2018 -0.7508 0.0 0
M  V30 4 C 3.9013 1.5016 0.0 0 CFG=1
M  V30 5 C 5.2018 -2.2524 0.0 0
M  V30 6 C 6.5022 0.0 0.0 0
M  V30 7 C 2.4508 1.1129 0.0 0
M  V30 8 C 4.6521 2.802 0.0 0 CFG=2
M  V30 9 C 3.1505 2.802 0.0 0
M  V30 10 C 3.9013 -3.0032 0.0 0
M  V30 11 C 7.8027 -0.7508 0.0 0
M  V30 12 C 1.389 2.1747 0.0 0
M  V30 13 C 2.0479 -0.3265 0.0 0
M  V30 14 C 5.9526 3.5529 0.0 0
M  V30 15 C -0.0613 1.7861 0.0 0
M  V30 16 C 0.6117 -0.7261 0.0 0
M  V30 17 N 5.9526 5.0545 0.0 0
M  V30 18 C -0.45 0.3356 0.0 0
M  V30 END ATOM
M  V30 BEGIN BOND
M  V30 1 2 1 2
M  V30 2 1 2 3
M  V30 3 1 4 2 CFG=3
M  V30 4 1 3 5
M  V30 5 1 3 6
M  V30 6 1 4 7
M  V30 7 1 8 4
M  V30 8 1 4 9
M  V30 9 1 5 10
M  V30 10 1 6 11
M  V30 11 2 7 12
M  V30 12 1 7 13
M  V30 13 1 8 14 CFG=3
M  V30 14 1 12 15
M  V30 15 2 13 16
M  V30 16 1 14 17
M  V30 17 2 15 18
M  V30 18 1 8 9
M  V30 19 1 16 18
M  V30 END BOND
M  V30 BEGIN COLLECTION
M  V30 MDLV30/STERAC1 ATOMS=(2 4 8)
M  V30 END COLLECTION
M  V30 END CTAB
M  END
>  <Molecule Name>
_c001

>  <status>
-

>  <cas>
96847-54-0

>  <name>
LEVOMILNACIPRAN

>  <ID>
1619

>  <Smiles>
CCN(CC)C([C@]1([C@@H](CN)C1)c1ccccc1)=O

$$$$
_c001
Actelion Java MolfileCreator 2.0

  0  0  0  0  0  0              0 V3000
M  V30 BEGIN CTAB
M  V30 COUNTS 19 21 0 0 0
M  V30 BEGIN ATOM
M  V30 1 O 1.732 -0.5 0.0 0
M  V30 2 C 0.866 0.0 0.0 0
M  V30 3 N 0.866 1.0 0.0 0
M  V30 4 N 0.0 -0.5 0.0 0
M  V30 5 C -0.0349 1.4338 0.0 0
M  V30 6 C 1.7669 1.4338 0.0 0
M  V30 7 C -0.2574 2.4088 0.0 0
M  V30 8 C -0.7679 0.7537 0.0 0
M  V30 9 C 1.9895 2.4088 0.0 0
M  V30 10 C 2.5 0.7537 0.0 0
M  V30 11 C -1.213 2.7035 0.0 0
M  V30 12 C 0.366 3.1906 0.0 0 CFG=2
M  V30 13 C -1.7235 1.0484 0.0 0
M  V30 14 C 2.945 2.7035 0.0 0
M  V30 15 C 1.366 3.1906 0.0 0
M  V30 16 C 3.4556 1.0484 0.0 0
M  V30 17 C -1.946 2.0233 0.0 0
M  V30 18 O -0.0678 4.0916 0.0 0
M  V30 19 C 3.6781 2.0233 0.0 0
M  V30 END ATOM
M  V30 BEGIN BOND
M  V30 1 2 1 2
M  V30 2 1 2 3
M  V30 3 1 2 4
M  V30 4 1 3 5
M  V30 5 1 3 6
M  V30 6 2 5 7
M  V30 7 1 5 8
M  V30 8 2 6 9
M  V30 9 1 6 10
M  V30 10 1 7 11
M  V30 11 1 12 7
M  V30 12 2 8 13
M  V30 13 1 9 14
M  V30 14 1 9 15
M  V30 15 2 10 16
M  V30 16 2 11 17
M  V30 17 1 12 18 CFG=1
M  V30 18 2 14 19
M  V30 19 1 12 15
M  V30 20 1 13 17
M  V30 21 1 16 19
M  V30 END BOND
M  V30 BEGIN COLLECTION
M  V30 MDLV30/STERAC1 ATOMS=(1 12)
M  V30 END COLLECTION
M  V30 END CTAB
M  END
>  <Molecule Name>
_c001

>  <status>
-

>  <cas>
104746-04-5

>  <name>
ESLICARBAZEPINE

>  <ID>
1620

>  <Smiles>
NC(N(c1c(CC2O)cccc1)c1c2cccc1)=O

$$$$
_c001
Actelion Java MolfileCreator 2.0

  0  0  0  0  0  0              0 V3000
M  V30 BEGIN CTAB
M  V30 COUNTS 22 24 0 0 0
M  V30 BEGIN ATOM
M  V30 1 O 6.1763 1.638 0.0 0
M  V30 2 C 5.7424 0.737 0.0 0
M  V30 3 N 4.7452 0.6623 0.0 0
M  V30 4 N 6.3057 -0.0891 0.0 0
M  V30 5 C 4.3798 -0.2685 0.0 0
M  V30 6 C 4.2452 1.5283 0.0 0
M  V30 7 C 3.4243 -0.5633 0.0 0
M  V30 8 C 5.1129 -0.9487 0.0 0
M  V30 9 C 3.2563 1.6773 0.0 0
M  V30 10 C 4.8687 2.3101 0.0 0
M  V30 11 C 3.2017 -1.5382 0.0 0
M  V30 12 C 2.598 0.0 0.0 0 CFG=2
M  V30 13 C 4.8904 -1.9236 0.0 0
M  V30 14 C 2.891 2.6082 0.0 0
M  V30 15 C 2.5233 0.9972 0.0 0
M  V30 16 C 4.5033 3.241 0.0 0
M  V30 17 C 3.9348 -2.2184 0.0 0
M  V30 18 O 1.732 -0.5 0.0 0
M  V30 19 C 3.5145 3.39 0.0 0
M  V30 20 C 0.866 0.0 0.0 0
M  V30 21 O 0.866 1.0 0.0 0
M  V30 22 C 0.0 -0.5 0.0 0
M  V30 END ATOM
M  V30 BEGIN BOND
M  V30 1 2 1 2
M  V30 2 1 2 3
M  V30 3 1 2 4
M  V30 4 1 3 5
M  V30 5 1 3 6
M  V30 6 2 5 7
M  V30 7 1 5 8
M  V30 8 2 6 9
M  V30 9 1 6 10
M  V30 10 1 7 11
M  V30 11 1 12 7
M  V30 12 2 8 13
M  V30 13 1 9 14
M  V30 14 1 9 15
M  V30 15 2 10 16
M  V30 16 2 11 17
M  V30 17 1 12 18 CFG=1
M  V30 18 2 14 19
M  V30 19 1 18 20
M  V30 20 2 20 21
M  V30 21 1 20 22
M  V30 22 1 12 15
M  V30 23 1 13 17
M  V30 24 1 16 19
M  V30 END BOND
M  V30 BEGIN COLLECTION
M  V30 MDLV30/STERAC1 ATOMS=(1 12)
M  V30 END COLLECTION
M  V30 END CTAB
M  END
>  <Molecule Name>
_c001

>  <status>
-

>  <cas>
236395-14-5

>  <name>
ESLICARBAZEPINE ACETATE

>  <ID>
1621

>  <Smiles>
CC(OC(C1)c(cccc2)c2N(C(N)=O)c2c1cccc2)=O

$$$$
_c001
Actelion Java MolfileCreator 2.0

  0  0  0  0  0  0              0 V3000
M  V30 BEGIN CTAB
M  V30 COUNTS 30 33 0 0 0
M  V30 BEGIN ATOM
M  V30 1 F 4.3301 0.9999 0.0 0
M  V30 2 C 4.3301 0.0 0.0 0
M  V30 3 C 3.4641 -0.5 0.0 0
M  V30 4 C 5.1961 -0.5 0.0 0
M  V30 5 C 3.4641 -1.5 0.0 0
M  V30 6 C 2.598 0.0 0.0 0
M  V30 7 C 5.1961 -1.5 0.0 0
M  V30 8 C 4.3301 -2.0 0.0 0
M  V30 9 N 1.732 -0.5 0.0 0
M  V30 10 F 6.0621 -2.0 0.0 0
M  V30 11 C 0.866 0.0 0.0 0
M  V30 12 O 0.866 1.0 0.0 0
M  V30 13 C 0.0 -0.5 0.0 0
M  V30 14 C -0.866 0.0 0.0 0
M  V30 15 C 0.0 -1.4999 0.0 0
M  V30 16 O -0.866 1.0 0.0 0
M  V30 17 C -1.732 -0.4999 0.0 0
M  V30 18 N -0.866 -1.9999 0.0 0
M  V30 19 O -2.598 0.0 0.0 0
M  V30 20 C -1.732 -1.4999 0.0 0
M  V30 21 C -0.866 -2.9999 0.0 0
M  V30 22 C -2.598 -1.9999 0.0 0
M  V30 23 C -1.732 -3.4999 0.0 0 CFG=1
M  V30 24 O -3.4641 -1.4999 0.0 0
M  V30 25 N -2.598 -2.9999 0.0 0
M  V30 26 O -1.732 -4.4999 0.0 0
M  V30 27 C -3.4641 -3.4999 0.0 0 CFG=1
M  V30 28 C -2.598 -4.9999 0.0 0
M  V30 29 C -3.4641 -4.4999 0.0 0
M  V30 30 C -4.3301 -2.9999 0.0 0
M  V30 END ATOM
M  V30 BEGIN BOND
M  V30 1 1 1 2
M  V30 2 2 2 3
M  V30 3 1 2 4
M  V30 4 1 3 5
M  V30 5 1 3 6
M  V30 6 2 4 7
M  V30 7 2 5 8
M  V30 8 1 6 9
M  V30 9 1 7 10
M  V30 10 1 9 11
M  V30 11 2 11 12
M  V30 12 1 11 13
M  V30 13 1 13 14
M  V30 14 2 13 15
M  V30 15 2 14 16
M  V30 16 1 14 17
M  V30 17 1 15 18
M  V30 18 1 17 19
M  V30 19 2 17 20
M  V30 20 1 18 21
M  V30 21 1 20 22
M  V30 22 1 23 21
M  V30 23 2 22 24
M  V30 24 1 22 25
M  V30 25 1 23 26 CFG=3
M  V30 26 1 27 25
M  V30 27 1 26 28
M  V30 28 1 27 29
M  V30 29 1 27 30 CFG=1
M  V30 30 1 7 8
M  V30 31 1 18 20
M  V30 32 1 23 25
M  V30 33 1 28 29
M  V30 END BOND
M  V30 BEGIN COLLECTION
M  V30 MDLV30/STERAC1 ATOMS=(2 23 27)
M  V30 END COLLECTION
M  V30 END CTAB
M  END
>  <Molecule Name>
_c001

>  <status>
-

>  <cas>
1051375-16-6

>  <name>
DOLUTEGRAVIR

>  <ID>
1622

>  <Smiles>
C[C@H](CCO[C@H]1CN(C=C(C(NCc(ccc(F)c2)c2F)=O)C2=O)C3=C2O)N1C3=O

$$$$
_c001
Actelion Java MolfileCreator 2.0

  0  0  0  0  0  0              0 V3000
M  V30 BEGIN CTAB
M  V30 COUNTS 33 37 0 0 0
M  V30 BEGIN ATOM
M  V30 1 O 2.598 0.0 0.0 0
M  V30 2 C 1.732 -0.5 0.0 0
M  V30 3 N 1.732 -1.5 0.0 0
M  V30 4 C 0.866 0.0 0.0 0
M  V30 5 C 0.866 -2.0 0.0 0
M  V30 6 C 2.598 -2.0 0.0 0
M  V30 7 C 0.0 -0.5 0.0 0
M  V30 8 C 0.866 -3.0 0.0 0 CFG=1
M  V30 9 C 2.598 -3.0 0.0 0
M  V30 10 N 0.0 -3.5 0.0 0
M  V30 11 C 1.732 -3.5 0.0 0
M  V30 12 N -0.9135 -3.0932 0.0 0
M  V30 13 C -0.1045 -4.4945 0.0 0
M  V30 14 C -1.5826 -3.8364 0.0 0
M  V30 15 N 0.5646 -5.2376 0.0 0
M  V30 16 C -1.0826 -4.7024 0.0 0
M  V30 17 C -2.5771 -3.7318 0.0 0
M  V30 18 C 0.2555 -6.1887 0.0 0
M  V30 19 C -1.3916 -5.6534 0.0 0
M  V30 20 C -2.9839 -2.8183 0.0 0
M  V30 21 C -3.1649 -4.5408 0.0 0
M  V30 22 N -0.7225 -6.3966 0.0 0
M  V30 23 N -2.3698 -5.8614 0.0 0
M  V30 24 C -3.9784 -2.7138 0.0 0
M  V30 25 C -4.1595 -4.4363 0.0 0
M  V30 26 C -4.5662 -3.5228 0.0 0
M  V30 27 O -5.5607 -3.4182 0.0 0
M  V30 28 C -6.1485 -4.2273 0.0 0
M  V30 29 C -7.143 -4.1227 0.0 0
M  V30 30 C -5.7418 -5.1408 0.0 0
M  V30 31 C -7.7308 -4.9317 0.0 0
M  V30 32 C -6.3295 -5.9498 0.0 0
M  V30 33 C -7.3241 -5.8453 0.0 0
M  V30 END ATOM
M  V30 BEGIN BOND
M  V30 1 2 1 2
M  V30 2 1 2 3
M  V30 3 1 2 4
M  V30 4 1 3 5
M  V30 5 1 3 6
M  V30 6 2 4 7
M  V30 7 1 8 5
M  V30 8 1 6 9
M  V30 9 1 8 10 CFG=3
M  V30 10 1 8 11
M  V30 11 1 10 12
M  V30 12 1 10 13
M  V30 13 2 12 14
M  V30 14 2 13 15
M  V30 15 1 13 16
M  V30 16 1 14 17
M  V30 17 1 15 18
M  V30 18 2 16 19
M  V30 19 2 17 20
M  V30 20 1 17 21
M  V30 21 2 18 22
M  V30 22 1 19 23
M  V30 23 1 20 24
M  V30 24 2 21 25
M  V30 25 2 24 26
M  V30 26 1 26 27
M  V30 27 1 27 28
M  V30 28 2 28 29
M  V30 29 1 28 30
M  V30 30 1 29 31
M  V30 31 2 30 32
M  V30 32 2 31 33
M  V30 33 1 9 11
M  V30 34 1 14 16
M  V30 35 1 19 22
M  V30 36 1 25 26
M  V30 37 1 32 33
M  V30 END BOND
M  V30 BEGIN COLLECTION
M  V30 MDLV30/STERAC1 ATOMS=(1 8)
M  V30 END COLLECTION
M  V30 END CTAB
M  END
>  <Molecule Name>
_c001

>  <status>
-

>  <cas>
936563-96-1

>  <name>
IBRUTINIB

>  <ID>
1623

>  <Smiles>
C=CC(N(CCC1)CC1n(c1ncnc(N)c11)nc1-c(cc1)ccc1Oc1ccccc1)=O

$$$$
_c001
Actelion Java MolfileCreator 2.0

  0  0  0  0  0  0              0 V3000
M  V30 BEGIN CTAB
M  V30 COUNTS 9 8 0 0 0
M  V30 BEGIN ATOM
M  V30 1 O 3.4641 -1.5 0.0 0
M  V30 2 C 3.4641 -0.5 0.0 0
M  V30 3 O 4.3301 0.0 0.0 0
M  V30 4 C 2.598 0.0 0.0 0
M  V30 5 C 5.1961 -0.5 0.0 0
M  V30 6 C 1.732 -0.5 0.0 0
M  V30 7 C 0.866 0.0 0.0 0
M  V30 8 O 0.866 1.0 0.0 0
M  V30 9 O 0.0 -0.5 0.0 0 CHG=-1
M  V30 END ATOM
M  V30 BEGIN BOND
M  V30 1 2 1 2
M  V30 2 1 2 3
M  V30 3 1 2 4
M  V30 4 1 3 5
M  V30 5 2 4 6
M  V30 6 1 6 7
M  V30 7 2 7 8
M  V30 8 1 7 9
M  V30 END BOND
M  V30 END CTAB
M  END
>  <Molecule Name>
_c001

>  <status>
-

>  <cas>
2756-87-8

>  <name>
MONOMETHYL FUMARATE

>  <ID>
1624

>  <Smiles>
COC(/C=C/C([O-])=O)=O

$$$$
_c001
Actelion Java MolfileCreator 2.0

  0  0  0  0  0  0              0 V3000
M  V30 BEGIN CTAB
M  V30 COUNTS 10 9 0 0 0
M  V30 BEGIN ATOM
M  V30 1 O 4.3301 0.9999 0.0 0
M  V30 2 C 4.3301 0.0 0.0 0
M  V30 3 O 5.1961 -0.5 0.0 0
M  V30 4 C 3.4641 -0.5 0.0 0
M  V30 5 C 6.0621 0.0 0.0 0
M  V30 6 C 2.598 0.0 0.0 0
M  V30 7 C 1.732 -0.5 0.0 0
M  V30 8 O 1.732 -1.5 0.0 0
M  V30 9 O 0.866 0.0 0.0 0
M  V30 10 C 0.0 -0.5 0.0 0
M  V30 END ATOM
M  V30 BEGIN BOND
M  V30 1 2 1 2
M  V30 2 1 2 3
M  V30 3 1 2 4
M  V30 4 1 3 5
M  V30 5 2 4 6
M  V30 6 1 6 7
M  V30 7 2 7 8
M  V30 8 1 7 9
M  V30 9 1 9 10
M  V30 END BOND
M  V30 END CTAB
M  END
>  <Molecule Name>
_c001

>  <status>
-

>  <cas>
624-49-7

>  <name>
DIMETHYL FUMARATE

>  <ID>
1625

>  <Smiles>
COC(/C=C/C(OC)=O)=O

$$$$
_c001
Actelion Java MolfileCreator 2.0

  0  0  0  0  0  0              0 V3000
M  V30 BEGIN CTAB
M  V30 COUNTS 36 38 0 0 0
M  V30 BEGIN ATOM
M  V30 1 P 7.7942 -0.75 0.0 0 CFG=2
M  V30 2 O 9.0932 -1.5 0.0 0
M  V30 3 O 7.7942 -2.25 0.0 0
M  V30 4 O 9.0932 0.0 0.0 0
M  V30 5 N 6.4951 0.0 0.0 0
M  V30 6 C 9.0932 -3.0 0.0 0
M  V30 7 C 10.3923 -0.75 0.0 0
M  V30 8 C 5.1961 -0.75 0.0 0 CFG=1
M  V30 9 C 10.3923 -2.25 0.0 0
M  V30 10 C 9.0932 -4.5 0.0 0
M  V30 11 C 11.6913 0.0 0.0 0 CFG=2
M  V30 12 C 3.8971 0.0 0.0 0
M  V30 13 C 5.1961 -2.25 0.0 0
M  V30 14 C 11.6913 -3.0 0.0 0
M  V30 15 C 10.3923 -5.25 0.0 0
M  V30 16 O 13.0616 -0.6101 0.0 0
M  V30 17 C 11.8481 1.4917 0.0 0 CFG=2
M  V30 18 O 3.8971 1.5 0.0 0
M  V30 19 O 2.598 -0.75 0.0 0
M  V30 20 C 11.6913 -4.5 0.0 0
M  V30 21 C 14.0653 0.5046 0.0 0 CFG=1
M  V30 22 O 10.7334 2.4954 0.0 0
M  V30 23 C 13.3153 1.8036 0.0 0 CFG=1
M  V30 24 C 1.299 0.0 0.0 0
M  V30 25 N 15.5571 0.3478 0.0 0
M  V30 26 F 14.5288 2.6852 0.0 0
M  V30 27 C 13.1585 3.2954 0.0 0
M  V30 28 C 1.299 1.5 0.0 0
M  V30 29 C 0.0 -0.75 0.0 0
M  V30 30 C 16.1672 -1.0224 0.0 0
M  V30 31 C 16.4388 1.5613 0.0 0
M  V30 32 O 15.2855 -2.236 0.0 0
M  V30 33 N 17.659 -1.1792 0.0 0
M  V30 34 C 17.9306 1.4045 0.0 0
M  V30 35 C 18.5407 0.0342 0.0 0
M  V30 36 O 20.0325 -0.1225 0.0 0
M  V30 END ATOM
M  V30 BEGIN BOND
M  V30 1 2 1 2
M  V30 2 1 1 3 CFG=3
M  V30 3 1 1 4
M  V30 4 1 1 5
M  V30 5 1 3 6
M  V30 6 1 4 7
M  V30 7 1 8 5 CFG=3
M  V30 8 2 6 9
M  V30 9 1 6 10
M  V30 10 1 11 7 CFG=1
M  V30 11 1 8 12
M  V30 12 1 8 13
M  V30 13 1 9 14
M  V30 14 2 10 15
M  V30 15 1 11 16
M  V30 16 1 17 11
M  V30 17 2 12 18
M  V30 18 1 12 19
M  V30 19 2 14 20
M  V30 20 1 21 16
M  V30 21 1 17 22 CFG=3
M  V30 22 1 23 17
M  V30 23 1 19 24
M  V30 24 1 21 25 CFG=1
M  V30 25 1 23 26 CFG=3
M  V30 26 1 23 27
M  V30 27 1 24 28
M  V30 28 1 24 29
M  V30 29 1 25 30
M  V30 30 1 25 31
M  V30 31 2 30 32
M  V30 32 1 30 33
M  V30 33 2 31 34
M  V30 34 1 33 35
M  V30 35 2 35 36
M  V30 36 1 15 20
M  V30 37 1 21 23
M  V30 38 1 34 35
M  V30 END BOND
M  V30 BEGIN COLLECTION
M  V30 MDLV30/STERAC1 ATOMS=(6 1 8 11 17 21 23)
M  V30 END COLLECTION
M  V30 END CTAB
M  END
>  <Molecule Name>
_c001

>  <status>
-

>  <cas>
1190307-88-0

>  <name>
SOFOSBUVIR

>  <ID>
1626

>  <Smiles>
CC(C)OC([C@@H](C)N[P@](OC[C@@H]([C@@H]([C@]1(C)F)O)O[C@@H]1N(C=CC(N1)=O)C1=O)(Oc1ccccc1)=O)=O

$$$$
_c001
Actelion Java MolfileCreator 2.0

  0  0  0  0  0  0              0 V3000
M  V30 BEGIN CTAB
M  V30 COUNTS 30 31 0 0 0
M  V30 BEGIN ATOM
M  V30 1 P 5.1961 -2.25 0.0 0 CFG=2
M  V30 2 O 4.4462 -3.549 0.0 0
M  V30 3 O 5.1961 -0.75 0.0 0
M  V30 4 O 6.4952 -3.0 0.0 0
M  V30 5 O 3.6962 -2.2499 0.0 0 CHG=-1
M  V30 6 P 3.8971 0.0 0.0 0 CFG=1
M  V30 7 P 7.7942 -2.25 0.0 0
M  V30 8 O 4.6471 1.299 0.0 0
M  V30 9 O 2.598 -0.75 0.0 0
M  V30 10 O 3.1471 1.299 0.0 0 CHG=-1
M  V30 11 O 8.5442 -3.549 0.0 0
M  V30 12 O 9.0933 -1.5 0.0 0 CHG=-1
M  V30 13 O 7.0442 -0.9509 0.0 0 CHG=-1
M  V30 14 C 1.299 0.0 0.0 0
M  V30 15 C 0.0 -0.75 0.0 0 CFG=1
M  V30 16 O -1.3703 -0.1398 0.0 0
M  V30 17 C -0.1567 -2.2417 0.0 0 CFG=1
M  V30 18 C -2.374 -1.2546 0.0 0 CFG=2
M  V30 19 O 0.9579 -3.2454 0.0 0
M  V30 20 C -1.624 -2.5536 0.0 0 CFG=2
M  V30 21 N -3.8658 -1.0978 0.0 0
M  V30 22 F -2.8375 -3.4353 0.0 0
M  V30 23 C -1.4672 -4.0454 0.0 0
M  V30 24 C -4.4759 0.2724 0.0 0
M  V30 25 C -4.7474 -2.3113 0.0 0
M  V30 26 O -3.5942 1.486 0.0 0
M  V30 27 N -5.9677 0.4292 0.0 0
M  V30 28 C -6.2392 -2.1545 0.0 0
M  V30 29 C -6.8493 -0.7842 0.0 0
M  V30 30 O -8.3411 -0.6274 0.0 0
M  V30 END ATOM
M  V30 BEGIN BOND
M  V30 1 2 1 2
M  V30 2 1 1 3
M  V30 3 1 1 4
M  V30 4 1 1 5 CFG=1
M  V30 5 1 6 3
M  V30 6 1 4 7
M  V30 7 2 6 8
M  V30 8 1 6 9
M  V30 9 1 6 10 CFG=1
M  V30 10 2 7 11
M  V30 11 1 7 12
M  V30 12 1 7 13
M  V30 13 1 9 14
M  V30 14 1 15 14 CFG=3
M  V30 15 1 15 16
M  V30 16 1 17 15
M  V30 17 1 18 16
M  V30 18 1 17 19 CFG=1
M  V30 19 1 20 17
M  V30 20 1 18 21 CFG=3
M  V30 21 1 20 22 CFG=1
M  V30 22 1 20 23
M  V30 23 1 21 24
M  V30 24 1 21 25
M  V30 25 2 24 26
M  V30 26 1 24 27
M  V30 27 2 25 28
M  V30 28 1 27 29
M  V30 29 2 29 30
M  V30 30 1 18 20
M  V30 31 1 28 29
M  V30 END BOND
M  V30 BEGIN COLLECTION
M  V30 MDLV30/STERAC1 ATOMS=(6 1 6 15 17 18 20)
M  V30 END COLLECTION
M  V30 END CTAB
M  END
>  <Molecule Name>
_c001

>  <status>
-

>  <cas>
1015073-42-3

>  <name>
M SOFOSBUVIR

>  <ID>
1627

>  <Smiles>
C[C@@]1([C@H](N(C=CC(N2)=O)C2=O)O[C@H](CO[P@@]([O-])(O[P@]([O-])(OP([O-])([O-])=O)=O)=O)[C@H]1O)F

$$$$
_c001
Actelion Java MolfileCreator 2.0

  0  0  0  0  0  0              0 V3000
M  V30 BEGIN CTAB
M  V30 COUNTS 52 58 0 0 0
M  V30 BEGIN ATOM
M  V30 1 S 2.5806 2.0519 0.0 0
M  V30 2 O 4.1186 2.2613 0.0 0
M  V30 3 O 3.2815 0.9293 0.0 0
M  V30 4 N 1.1185 1.1803 0.0 0
M  V30 5 C 2.6111 3.7688 0.0 0
M  V30 6 C 1.3055 0.0 0.0 0
M  V30 7 C 1.8573 5.0744 0.0 0
M  V30 8 C 3.3649 5.0744 0.0 0
M  V30 9 O 2.3944 -0.7194 0.0 0
M  V30 10 C 0.0 -0.7537 0.0 0 CFG=1
M  V30 11 N 0.0 -2.2613 0.0 0
M  V30 12 C -1.3055 0.0 0.0 0 CFG=2
M  V30 13 C -1.3055 -1.5075 0.0 0
M  V30 14 C 1.3055 -3.0151 0.0 0
M  V30 15 C -1.3055 1.5075 0.0 0
M  V30 16 O 1.3055 -4.5226 0.0 0
M  V30 17 C 2.6111 -2.2613 0.0 0 CFG=2
M  V30 18 C 0.0 2.2613 0.0 0
M  V30 19 C 3.9167 -3.0151 0.0 0 CFG=1
M  V30 20 C 3.0334 -0.8005 0.0 0
M  V30 21 C 1.2645 1.7105 0.0 0
M  V30 22 C 5.3206 -2.3827 0.0 0
M  V30 23 C 4.9445 -1.9182 0.0 0
M  V30 24 C 4.3141 -0.8216 0.0 0 CFG=1
M  V30 25 C 2.3866 2.5488 0.0 0
M  V30 26 O 6.5279 -3.0151 0.0 0
M  V30 27 N 5.2502 -0.7425 0.0 0
M  V30 28 O 5.1776 0.6764 0.0 0
M  V30 29 C 3.9167 1.5075 0.0 0
M  V30 30 C 3.9147 0.0186 0.0 0
M  V30 31 C 6.4831 -0.0425 0.0 0
M  V30 32 C 6.6861 0.6797 0.0 0
M  V30 33 C 7.439 1.982 0.0 0
M  V30 34 C 7.439 -0.6291 0.0 0
M  V30 35 C 8.9465 1.982 0.0 0
M  V30 36 C 6.6852 3.2876 0.0 0
M  V30 37 C 8.9465 -0.6291 0.0 0
M  V30 38 N 9.7003 0.6764 0.0 0
M  V30 39 C 9.7003 3.2876 0.0 0
M  V30 40 C 7.439 4.5931 0.0 0
M  V30 41 C 9.7003 -1.9347 0.0 0
M  V30 42 C 8.9465 4.5931 0.0 0
M  V30 43 C 11.2079 3.2876 0.0 0
M  V30 44 S 11.1996 -2.0923 0.0 0
M  V30 45 N 9.0871 -3.3119 0.0 0
M  V30 46 O 9.7003 5.8987 0.0 0
M  V30 47 C 11.513 -3.5669 0.0 0
M  V30 48 C 10.2075 -4.3206 0.0 0
M  V30 49 C 11.2079 5.8987 0.0 0
M  V30 50 C 10.0499 -5.8199 0.0 0
M  V30 51 C 11.2695 -6.7061 0.0 0
M  V30 52 C 8.6727 -6.4331 0.0 0
M  V30 END ATOM
M  V30 BEGIN BOND
M  V30 1 2 1 2
M  V30 2 2 1 3
M  V30 3 1 1 4
M  V30 4 1 1 5
M  V30 5 1 4 6
M  V30 6 1 5 7
M  V30 7 1 5 8
M  V30 8 2 6 9
M  V30 9 1 10 6
M  V30 10 1 10 11
M  V30 11 1 12 10
M  V30 12 1 10 13 CFG=3
M  V30 13 1 11 14
M  V30 14 1 12 15
M  V30 15 2 14 16
M  V30 16 1 17 14
M  V30 17 2 15 18
M  V30 18 1 19 17
M  V30 19 1 17 20 CFG=1
M  V30 20 1 18 21
M  V30 21 1 19 22
M  V30 22 1 19 23 CFG=1
M  V30 23 1 24 20
M  V30 24 1 21 25
M  V30 25 2 22 26
M  V30 26 1 22 27
M  V30 27 1 24 28 CFG=3
M  V30 28 1 25 29
M  V30 29 1 27 30
M  V30 30 1 27 31
M  V30 31 1 28 32
M  V30 32 1 32 33
M  V30 33 2 32 34
M  V30 34 1 33 35
M  V30 35 2 33 36
M  V30 36 1 34 37
M  V30 37 1 35 38
M  V30 38 2 35 39
M  V30 39 1 36 40
M  V30 40 1 37 41
M  V30 41 1 39 42
M  V30 42 1 39 43
M  V30 43 1 41 44
M  V30 44 2 41 45
M  V30 45 1 42 46
M  V30 46 1 44 47
M  V30 47 1 45 48
M  V30 48 1 46 49
M  V30 49 1 48 50
M  V30 50 1 50 51
M  V30 51 1 50 52
M  V30 52 1 7 8
M  V30 53 1 12 13 CFG=3
M  V30 54 1 23 24
M  V30 55 1 29 30
M  V30 56 2 37 38
M  V30 57 2 40 42
M  V30 58 2 47 48
M  V30 END BOND
M  V30 BEGIN COLLECTION
M  V30 MDLV30/STERAC1 ATOMS=(5 10 12 17 19 24)
M  V30 END COLLECTION
M  V30 END CTAB
M  END
>  <Molecule Name>
_c001

>  <status>
DISCONTINUED

>  <cas>
923604-59-5

>  <name>
SIMEPREVIR

>  <ID>
1628

>  <Smiles>
CC(C)c1csc(-c2nc3c(C)c(OC)ccc3c(O[C@@H](C[C@@H]3C(N[C@@](C4)([C@H]4/C=C\CCCCN4C)C(NS(C5CC5)(=O)=O)=O)=O)C[C@@H]3C4=O)c2)n1

$$$$
_c001
Actelion Java MolfileCreator 2.0

  0  0  0  0  0  0              0 V3000
M  V30 BEGIN CTAB
M  V30 COUNTS 32 36 0 0 0
M  V30 BEGIN ATOM
M  V30 1 O 2.598 0.0 0.0 0
M  V30 2 C 3.4641 -0.5 0.0 0
M  V30 3 C 1.732 -0.5 0.0 0
M  V30 4 C 4.3301 0.0 0.0 0
M  V30 5 C 0.866 0.0 0.0 0
M  V30 6 C 5.1961 -0.4999 0.0 0
M  V30 7 C 4.3301 0.9999 0.0 0
M  V30 8 N 0.0 -0.5 0.0 0 CHG=1
M  V30 9 C 6.0621 0.0 0.0 0
M  V30 10 C 5.1961 1.4999 0.0 0
M  V30 11 C -0.7991 0.1011 0.0 0
M  V30 12 C -0.2499 -1.5083 0.0 0
M  V30 13 C 0.2181 -2.2895 0.0 0
M  V30 14 C 6.0621 1.0 0.0 0
M  V30 15 C -1.7193 -0.2904 0.0 0
M  V30 16 C -0.9446 -1.773 0.0 0
M  V30 17 C -0.7766 -2.7335 0.0 0
M  V30 18 C -1.8403 -1.2831 0.0 0
M  V30 19 C -2.801 -1.5604 0.0 0
M  V30 20 O -3.5216 -0.867 0.0 0
M  V30 21 C -2.0805 -2.2538 0.0 0
M  V30 22 C -3.0412 -2.5311 0.0 0
M  V30 23 C -2.1956 -3.2245 0.0 0
M  V30 24 C -1.1526 -2.0327 0.0 0
M  V30 25 C -4.002 -2.8085 0.0 0
M  V30 26 C -2.5706 -3.2245 0.0 0
M  V30 27 C -1.6001 -3.9179 0.0 0
M  V30 28 C -0.3116 -2.7581 0.0 0
M  V30 29 C -4.2422 -3.7792 0.0 0
M  V30 30 C -2.5608 -4.1952 0.0 0
M  V30 31 C -0.6393 -3.6405 0.0 0
M  V30 32 C -3.5216 -4.4726 0.0 0
M  V30 END ATOM
M  V30 BEGIN BOND
M  V30 1 1 1 2
M  V30 2 1 1 3
M  V30 3 1 2 4
M  V30 4 1 3 5
M  V30 5 2 4 6
M  V30 6 1 4 7
M  V30 7 1 5 8
M  V30 8 1 6 9
M  V30 9 2 7 10
M  V30 10 1 8 11
M  V30 11 1 8 12
M  V30 12 1 8 13
M  V30 13 2 9 14
M  V30 14 1 11 15
M  V30 15 1 12 16
M  V30 16 1 13 17
M  V30 17 1 15 18
M  V30 18 1 18 19
M  V30 19 1 19 20
M  V30 20 1 19 21
M  V30 21 1 19 22
M  V30 22 2 21 23
M  V30 23 1 21 24
M  V30 24 2 22 25
M  V30 25 1 22 26
M  V30 26 1 23 27
M  V30 27 2 24 28
M  V30 28 1 25 29
M  V30 29 2 26 30
M  V30 30 2 27 31
M  V30 31 2 29 32
M  V30 32 1 10 14
M  V30 33 1 16 18
M  V30 34 1 17 18
M  V30 35 1 28 31
M  V30 36 1 30 32
M  V30 END BOND
M  V30 END CTAB
M  END
>  <Molecule Name>
_c001

>  <status>
-

>  <cas>
869113-09-7

>  <name>
UMECLIDINIUM

>  <ID>
1629

>  <Smiles>
OC(C1(CC2)CC[N+]2(CCOCc2ccccc2)CC1)(c1ccccc1)c1ccccc1

$$$$
_c001
Actelion Java MolfileCreator 2.0

  0  0  0  0  0  0              0 V3000
M  V30 BEGIN CTAB
M  V30 COUNTS 35 39 0 0 0
M  V30 BEGIN ATOM
M  V30 1 O 2.598 0.0 0.0 0
M  V30 2 C 3.4641 -0.5 0.0 0
M  V30 3 C 1.732 -0.5 0.0 0
M  V30 4 C 3.4641 -1.5 0.0 0
M  V30 5 C 4.3301 0.0 0.0 0
M  V30 6 C 0.866 0.0 0.0 0
M  V30 7 C 4.3301 -2.0 0.0 0
M  V30 8 C 5.1961 -0.5 0.0 0
M  V30 9 N 0.0 -0.5 0.0 0
M  V30 10 C 5.1961 -1.5 0.0 0
M  V30 11 C -0.8262 0.0633 0.0 0
M  V30 12 C 0.0747 -1.4972 0.0 0
M  V30 13 C 6.0621 -2.0 0.0 0
M  V30 14 C -1.7818 -0.2314 0.0 0
M  V30 15 C -0.6583 -2.1773 0.0 0
M  V30 16 N 6.9282 -1.5 0.0 0
M  V30 17 C -2.1471 -1.1623 0.0 0
M  V30 18 C -1.6471 -2.0283 0.0 0
M  V30 19 C 7.8417 -1.9067 0.0 0
M  V30 20 C 7.0327 -0.5054 0.0 0
M  V30 21 C 8.0496 -2.8848 0.0 0
M  V30 22 C 8.5108 -1.1635 0.0 0
M  V30 23 C 8.0108 -0.2975 0.0 0
M  V30 24 C 6.3636 0.2376 0.0 0
M  V30 25 C 7.3065 -3.554 0.0 0
M  V30 26 C 9.0007 -3.1939 0.0 0
M  V30 27 C 9.5054 -1.2681 0.0 0
M  V30 28 C 8.3198 0.6534 0.0 0
M  V30 29 C 6.6726 1.1887 0.0 0
M  V30 30 C 7.5144 -4.5321 0.0 0
M  V30 31 C 9.2086 -4.172 0.0 0
M  V30 32 C 7.6507 1.3966 0.0 0
M  V30 33 C 8.4654 -4.8411 0.0 0
M  V30 34 O 7.9597 2.3476 0.0 0
M  V30 35 O 8.6733 -5.8193 0.0 0
M  V30 END ATOM
M  V30 BEGIN BOND
M  V30 1 1 1 2
M  V30 2 1 1 3
M  V30 3 2 2 4
M  V30 4 1 2 5
M  V30 5 1 3 6
M  V30 6 1 4 7
M  V30 7 2 5 8
M  V30 8 1 6 9
M  V30 9 2 7 10
M  V30 10 1 9 11
M  V30 11 1 9 12
M  V30 12 1 10 13
M  V30 13 1 11 14
M  V30 14 1 12 15
M  V30 15 1 13 16
M  V30 16 1 14 17
M  V30 17 1 15 18
M  V30 18 1 16 19
M  V30 19 1 16 20
M  V30 20 1 19 21
M  V30 21 2 19 22
M  V30 22 2 20 23
M  V30 23 1 20 24
M  V30 24 2 21 25
M  V30 25 1 21 26
M  V30 26 1 22 27
M  V30 27 1 23 28
M  V30 28 2 24 29
M  V30 29 1 25 30
M  V30 30 2 26 31
M  V30 31 2 28 32
M  V30 32 2 30 33
M  V30 33 1 32 34
M  V30 34 1 33 35
M  V30 35 1 8 10
M  V30 36 1 17 18
M  V30 37 1 22 23
M  V30 38 1 29 32
M  V30 39 1 31 33
M  V30 END BOND
M  V30 END CTAB
M  END
>  <Molecule Name>
_c001

>  <status>
-

>  <cas>
198481-32-2

>  <name>
BAZEDOXIFENE

>  <ID>
1630

>  <Smiles>
Cc1c(-c(cc2)ccc2O)n(Cc(cc2)ccc2OCCN2CCCCCC2)c(cc2)c1cc2O

$$$$
_c001
Actelion Java MolfileCreator 2.0

  0  0  0  0  0  0              0 V3000
M  V30 BEGIN CTAB
M  V30 COUNTS 21 23 0 0 0
M  V30 BEGIN ATOM
M  V30 1 Cl 0.0 1.5 0.0 0
M  V30 2 C 0.866 1.0 0.0 0
M  V30 3 C 0.866 0.0 0.0 0
M  V30 4 C 1.732 1.4999 0.0 0
M  V30 5 C 1.732 -0.5 0.0 0
M  V30 6 C 0.0 -0.5 0.0 0 CFG=1
M  V30 7 C 2.598 0.9999 0.0 0
M  V30 8 C 2.598 0.0 0.0 0
M  V30 9 S -0.9135 -0.0932 0.0 0
M  V30 10 C -0.1045 -1.4945 0.0 0
M  V30 11 Cl 3.4641 1.4999 0.0 0
M  V30 12 C -1.5826 -0.8364 0.0 0
M  V30 13 S -1.0826 -1.7024 0.0 0
M  V30 14 C -2.5771 -0.7318 0.0 0
M  V30 15 N -3.1649 -1.5408 0.0 0
M  V30 16 C -2.9839 0.1816 0.0 0
M  V30 17 C -4.1649 -1.5408 0.0 0
M  V30 18 C -2.8559 -2.4919 0.0 0
M  V30 19 N -3.3906 1.0952 0.0 0
M  V30 20 N -4.474 -2.4919 0.0 0
M  V30 21 C -3.6649 -3.0797 0.0 0
M  V30 END ATOM
M  V30 BEGIN BOND
M  V30 1 1 1 2
M  V30 2 2 2 3
M  V30 3 1 2 4
M  V30 4 1 3 5
M  V30 5 1 6 3 CFG=3
M  V30 6 2 4 7
M  V30 7 2 5 8
M  V30 8 1 6 9
M  V30 9 1 6 10
M  V30 10 1 7 11
M  V30 11 1 9 12
M  V30 12 1 10 13
M  V30 13 2 12 14
M  V30 14 1 14 15
M  V30 15 1 14 16
M  V30 16 1 15 17
M  V30 17 1 15 18
M  V30 18 3 16 19
M  V30 19 2 17 20
M  V30 20 2 18 21
M  V30 21 1 7 8
M  V30 22 1 12 13
M  V30 23 1 20 21
M  V30 END BOND
M  V30 BEGIN COLLECTION
M  V30 MDLV30/STERAC1 ATOMS=(1 6)
M  V30 END COLLECTION
M  V30 END CTAB
M  END
>  <Molecule Name>
_c001

>  <status>
-

>  <cas>
187164-19-8

>  <name>
LULICONAZOLE

>  <ID>
1631

>  <Smiles>
N#C/C(/n1cncc1)=C(/SC1)\SC1c(ccc(Cl)c1)c1Cl

$$$$
_c001
Actelion Java MolfileCreator 2.0

  0  0  0  0  0  0              0 V3000
M  V30 BEGIN CTAB
M  V30 COUNTS 40 39 0 0 0
M  V30 BEGIN ATOM
M  V30 1 O 20.7846 -0.5 0.0 0
M  V30 2 C 21.6506 0.0 0.0 0
M  V30 3 C 19.9185 0.0 0.0 0
M  V30 4 C 22.5166 -0.5 0.0 0
M  V30 5 C 19.0525 -0.5 0.0 0
M  V30 6 O 23.3826 0.0 0.0 0
M  V30 7 O 18.1865 0.0 0.0 0
M  V30 8 C 24.2487 -0.5 0.0 0
M  V30 9 C 17.3205 -0.5 0.0 0
M  V30 10 C 25.1147 0.0 0.0 0
M  V30 11 C 16.4544 0.0 0.0 0
M  V30 12 O 25.9807 -0.5 0.0 0
M  V30 13 O 15.5884 -0.5 0.0 0
M  V30 14 C 26.8467 0.0 0.0 0
M  V30 15 C 14.7224 0.0 0.0 0
M  V30 16 C 27.7128 -0.5 0.0 0
M  V30 17 C 13.8564 -0.5 0.0 0
M  V30 18 O 28.5788 0.0 0.0 0
M  V30 19 O 12.9903 0.0 0.0 0
M  V30 20 C 29.4448 -0.5 0.0 0
M  V30 21 C 12.1243 -0.5 0.0 0
M  V30 22 C 30.3108 0.0 0.0 0
M  V30 23 C 11.2583 0.0 0.0 0
M  V30 24 O 31.1769 -0.5 0.0 0
M  V30 25 O 10.3923 -0.5 0.0 0
M  V30 26 C 32.0429 0.0 0.0 0
M  V30 27 C 9.5262 0.0 0.0 0
M  V30 28 C 32.9089 -0.5 0.0 0
M  V30 29 C 8.6602 -0.5 0.0 0
M  V30 30 O 33.7749 0.0 0.0 0
M  V30 31 C 7.7942 0.0 0.0 0
M  V30 32 C 6.9282 -0.5 0.0 0
M  V30 33 C 6.0621 0.0 0.0 0
M  V30 34 C 5.1961 -0.5 0.0 0
M  V30 35 C 4.3301 0.0 0.0 0
M  V30 36 C 3.4641 -0.5 0.0 0
M  V30 37 C 2.598 0.0 0.0 0
M  V30 38 C 1.732 -0.5 0.0 0
M  V30 39 C 0.866 0.0 0.0 0
M  V30 40 C 0.0 -0.5 0.0 0
M  V30 END ATOM
M  V30 BEGIN BOND
M  V30 1 1 1 2
M  V30 2 1 1 3
M  V30 3 1 2 4
M  V30 4 1 3 5
M  V30 5 1 4 6
M  V30 6 1 5 7
M  V30 7 1 6 8
M  V30 8 1 7 9
M  V30 9 1 8 10
M  V30 10 1 9 11
M  V30 11 1 10 12
M  V30 12 1 11 13
M  V30 13 1 12 14
M  V30 14 1 13 15
M  V30 15 1 14 16
M  V30 16 1 15 17
M  V30 17 1 16 18
M  V30 18 1 17 19
M  V30 19 1 18 20
M  V30 20 1 19 21
M  V30 21 1 20 22
M  V30 22 1 21 23
M  V30 23 1 22 24
M  V30 24 1 23 25
M  V30 25 1 24 26
M  V30 26 1 25 27
M  V30 27 1 26 28
M  V30 28 1 27 29
M  V30 29 1 28 30
M  V30 30 1 29 31
M  V30 31 1 31 32
M  V30 32 1 32 33
M  V30 33 1 33 34
M  V30 34 1 34 35
M  V30 35 1 35 36
M  V30 36 1 36 37
M  V30 37 1 37 38
M  V30 38 1 38 39
M  V30 39 1 39 40
M  V30 END BOND
M  V30 END CTAB
M  END
>  <Molecule Name>
_c001

>  <status>
-

>  <cas>
9002-92-0

>  <name>
POLIDOCANOL

>  <ID>
1632

>  <Smiles>
CCCCCCCCCCCCOCCOCCOCCOCCOCCOCCOCCOCCOCCO

$$$$
_c001
Actelion Java MolfileCreator 2.0

  0  0  0  0  0  0              0 V3000
M  V30 BEGIN CTAB
M  V30 COUNTS 28 30 0 0 0
M  V30 BEGIN ATOM
M  V30 1 S 7.7942 -3.6477 0.0 0
M  V30 2 C 8.1824 -2.1988 0.0 0 CFG=2
M  V30 3 C 8.8548 -4.7084 0.0 0
M  V30 4 N 9.6313 -1.8106 0.0 0
M  V30 5 C 7.7942 -0.75 0.0 0 CFG=2
M  V30 6 C 10.3037 -4.3202 0.0 0
M  V30 7 C 10.692 -2.8713 0.0 0
M  V30 8 C 9.2431 -0.3617 0.0 0
M  V30 9 N 6.4951 0.0 0.0 0
M  V30 10 C 11.3644 -5.3808 0.0 0
M  V30 11 C 12.1408 -2.483 0.0 0
M  V30 12 O 9.9931 0.9372 0.0 0
M  V30 13 C 5.1961 -0.75 0.0 0
M  V30 14 O 10.9762 -6.8297 0.0 0
M  V30 15 O 13.2015 -3.5437 0.0 0
M  V30 16 O 12.5291 -1.0342 0.0 0 CHG=-1
M  V30 17 O 5.1961 -2.25 0.0 0
M  V30 18 C 3.8971 0.0 0.0 0
M  V30 19 C 12.0368 -7.8904 0.0 0
M  V30 20 N 2.598 -0.75 0.0 0
M  V30 21 C 3.8971 1.5 0.0 0
M  V30 22 O 2.598 -2.25 0.0 0
M  V30 23 N 5.1106 2.3816 0.0 0
M  V30 24 C 2.6835 2.3816 0.0 0
M  V30 25 C 1.299 -3.0 0.0 0
M  V30 26 C 4.6471 3.8082 0.0 0
M  V30 27 S 3.1471 3.8082 0.0 0
M  V30 28 N 5.5287 5.0217 0.0 0
M  V30 END ATOM
M  V30 BEGIN BOND
M  V30 1 1 2 1 CFG=1
M  V30 2 1 1 3
M  V30 3 1 2 4
M  V30 4 1 5 2
M  V30 5 1 3 6
M  V30 6 1 4 7
M  V30 7 1 4 8
M  V30 8 1 5 9 CFG=1
M  V30 9 1 6 10
M  V30 10 1 7 11
M  V30 11 2 8 12
M  V30 12 1 9 13
M  V30 13 1 10 14
M  V30 14 2 11 15
M  V30 15 1 11 16
M  V30 16 2 13 17
M  V30 17 1 13 18
M  V30 18 1 14 19
M  V30 19 2 18 20
M  V30 20 1 18 21
M  V30 21 1 20 22
M  V30 22 1 21 23
M  V30 23 2 21 24
M  V30 24 1 22 25
M  V30 25 2 23 26
M  V30 26 1 24 27
M  V30 27 1 26 28
M  V30 28 1 5 8
M  V30 29 2 6 7
M  V30 30 1 26 27
M  V30 END BOND
M  V30 BEGIN COLLECTION
M  V30 MDLV30/STERAC1 ATOMS=(2 2 5)
M  V30 END COLLECTION
M  V30 END CTAB
M  END
>  <Molecule Name>
_c001

>  <status>
-

>  <cas>
80210-62-4

>  <name>
CEFPODOXIME

>  <ID>
1633

>  <Smiles>
COCC(CS[C@H]1[C@H]2NC(/C(/c3csc(N)n3)=N\OC)=O)=C(C([O-])=O)N1C2=O

$$$$
_c001
Actelion Java MolfileCreator 2.0

  0  0  0  0  0  0              0 V3000
M  V30 BEGIN CTAB
M  V30 COUNTS 27 29 0 0 0
M  V30 BEGIN ATOM
M  V30 1 S 3.4641 -2.4318 0.0 0
M  V30 2 C 3.7229 -1.4659 0.0 0 CFG=2
M  V30 3 C 4.1712 -3.1389 0.0 0
M  V30 4 N 4.6888 -1.2071 0.0 0
M  V30 5 C 3.4641 -0.5 0.0 0 CFG=2
M  V30 6 C 5.1371 -2.8801 0.0 0
M  V30 7 C 5.3959 -1.9142 0.0 0
M  V30 8 C 4.43 -0.2411 0.0 0
M  V30 9 N 2.598 0.0 0.0 0
M  V30 10 C 5.8442 -3.5872 0.0 0
M  V30 11 C 6.3618 -1.6553 0.0 0
M  V30 12 O 4.93 0.6248 0.0 0
M  V30 13 C 1.732 -0.5 0.0 0
M  V30 14 C 5.5854 -4.5531 0.0 0
M  V30 15 O 7.0689 -2.3625 0.0 0
M  V30 16 O 6.6206 -0.6894 0.0 0 CHG=-1
M  V30 17 O 1.732 -1.5 0.0 0
M  V30 18 C 0.866 0.0 0.0 0 CFG=1
M  V30 19 C 4.6194 -4.8119 0.0 0
M  V30 20 N 0.866 1.0 0.0 0
M  V30 21 C 0.0 -0.5 0.0 0
M  V30 22 C -0.866 0.0 0.0 0
M  V30 23 C 0.0 -1.4999 0.0 0
M  V30 24 C -1.732 -0.4999 0.0 0
M  V30 25 C -0.866 -1.9999 0.0 0
M  V30 26 C -1.732 -1.4999 0.0 0
M  V30 27 O -2.598 -1.9999 0.0 0
M  V30 END ATOM
M  V30 BEGIN BOND
M  V30 1 1 2 1 CFG=1
M  V30 2 1 1 3
M  V30 3 1 2 4
M  V30 4 1 5 2
M  V30 5 1 3 6
M  V30 6 1 4 7
M  V30 7 1 4 8
M  V30 8 1 5 9 CFG=1
M  V30 9 1 6 10
M  V30 10 1 7 11
M  V30 11 2 8 12
M  V30 12 1 9 13
M  V30 13 2 10 14
M  V30 14 2 11 15
M  V30 15 1 11 16
M  V30 16 2 13 17
M  V30 17 1 18 13
M  V30 18 1 14 19
M  V30 19 1 18 20 CFG=3
M  V30 20 1 18 21
M  V30 21 2 21 22
M  V30 22 1 21 23
M  V30 23 1 22 24
M  V30 24 2 23 25
M  V30 25 2 24 26
M  V30 26 1 26 27
M  V30 27 1 5 8
M  V30 28 2 6 7
M  V30 29 1 25 26
M  V30 END BOND
M  V30 BEGIN COLLECTION
M  V30 MDLV30/STERAC1 ATOMS=(3 2 5 18)
M  V30 END COLLECTION
M  V30 END CTAB
M  END
>  <Molecule Name>
_c001

>  <status>
-

>  <cas>
92665-29-7

>  <name>
CEFPROZIL

>  <ID>
1634

>  <Smiles>
C/C=C\C(CS[C@H]1[C@H]2NC([C@H](c(cc3)ccc3O)N)=O)=C(C([O-])=O)N1C2=O

$$$$
_c001
Actelion Java MolfileCreator 2.0

  0  0  0  0  0  0              0 V3000
M  V30 BEGIN CTAB
M  V30 COUNTS 31 34 0 0 0
M  V30 BEGIN ATOM
M  V30 1 S 3.4641 -2.4318 0.0 0
M  V30 2 C 3.7229 -1.4659 0.0 0 CFG=2
M  V30 3 C 4.1712 -3.1389 0.0 0
M  V30 4 N 4.6888 -1.2071 0.0 0
M  V30 5 C 3.4641 -0.5 0.0 0 CFG=2
M  V30 6 C 5.1371 -2.8801 0.0 0
M  V30 7 C 5.3959 -1.9142 0.0 0
M  V30 8 C 4.43 -0.2411 0.0 0
M  V30 9 N 2.598 0.0 0.0 0
M  V30 10 C 5.8442 -3.5872 0.0 0
M  V30 11 C 6.3618 -1.6553 0.0 0
M  V30 12 O 4.93 0.6248 0.0 0
M  V30 13 C 1.732 -0.5 0.0 0
M  V30 14 S 5.5854 -4.5531 0.0 0
M  V30 15 O 7.0689 -2.3625 0.0 0
M  V30 16 O 6.6206 -0.6894 0.0 0 CHG=-1
M  V30 17 O 1.732 -1.5 0.0 0
M  V30 18 C 0.866 0.0 0.0 0 CFG=1
M  V30 19 C 6.2925 -5.2602 0.0 0
M  V30 20 O 0.866 1.0 0.0 0
M  V30 21 C 0.0 -0.5 0.0 0
M  V30 22 N 6.136 -6.2479 0.0 0
M  V30 23 N 7.2802 -5.1038 0.0 0
M  V30 24 C -0.866 0.0 0.0 0
M  V30 25 C 0.0 -1.4999 0.0 0
M  V30 26 N 7.0271 -6.7019 0.0 0
M  V30 27 N 7.7342 -5.9948 0.0 0
M  V30 28 C 7.7342 -4.2128 0.0 0
M  V30 29 C -1.732 -0.4999 0.0 0
M  V30 30 C -0.866 -1.9999 0.0 0
M  V30 31 C -1.732 -1.4999 0.0 0
M  V30 END ATOM
M  V30 BEGIN BOND
M  V30 1 1 2 1 CFG=1
M  V30 2 1 1 3
M  V30 3 1 2 4
M  V30 4 1 5 2
M  V30 5 1 3 6
M  V30 6 1 4 7
M  V30 7 1 4 8
M  V30 8 1 5 9 CFG=1
M  V30 9 1 6 10
M  V30 10 1 7 11
M  V30 11 2 8 12
M  V30 12 1 9 13
M  V30 13 1 10 14
M  V30 14 2 11 15
M  V30 15 1 11 16
M  V30 16 2 13 17
M  V30 17 1 18 13
M  V30 18 1 14 19
M  V30 19 1 18 20 CFG=3
M  V30 20 1 18 21
M  V30 21 2 19 22
M  V30 22 1 19 23
M  V30 23 2 21 24
M  V30 24 1 21 25
M  V30 25 1 22 26
M  V30 26 1 23 27
M  V30 27 1 23 28
M  V30 28 1 24 29
M  V30 29 2 25 30
M  V30 30 2 29 31
M  V30 31 1 5 8
M  V30 32 2 6 7
M  V30 33 2 26 27
M  V30 34 1 30 31
M  V30 END BOND
M  V30 BEGIN COLLECTION
M  V30 MDLV30/STERAC1 ATOMS=(3 2 5 18)
M  V30 END COLLECTION
M  V30 END CTAB
M  END
>  <Molecule Name>
_c001

>  <status>
-

>  <cas>
34444-01-4

>  <name>
CEFAMANDOLE

>  <ID>
1635

>  <Smiles>
Cn1nnnc1SCC(CS[C@H]1[C@H]2NC([C@H](c3ccccc3)O)=O)=C(C([O-])=O)N1C2=O

$$$$
_c001
Actelion Java MolfileCreator 2.0

  0  0  0  0  0  0              0 V3000
M  V30 BEGIN CTAB
M  V30 COUNTS 38 42 0 0 0
M  V30 BEGIN ATOM
M  V30 1 O 0.0 -1.4999 0.0 0
M  V30 2 C 0.866 -1.9999 0.0 0
M  V30 3 C 0.866 -2.9999 0.0 0
M  V30 4 C 1.732 -1.5 0.0 0
M  V30 5 C 0.0 -3.4999 0.0 0
M  V30 6 C 1.732 -3.5 0.0 0
M  V30 7 C 1.732 -0.5 0.0 0
M  V30 8 C 2.598 -1.9999 0.0 0
M  V30 9 O -0.866 -2.9999 0.0 0
M  V30 10 C 0.0 -4.5 0.0 0
M  V30 11 C 2.598 -3.0 0.0 0
M  V30 12 C 1.732 -4.5 0.0 0
M  V30 13 O 0.866 0.0 0.0 0
M  V30 14 C 2.598 0.0 0.0 0
M  V30 15 C 3.4641 -1.5 0.0 0
M  V30 16 C 0.866 -4.9999 0.0 0
M  V30 17 C -0.866 -5.0 0.0 0 CFG=2
M  V30 18 O 3.4641 -3.5 0.0 0
M  V30 19 O 2.598 -5.0 0.0 0
M  V30 20 C 0.0 -0.5 0.0 0
M  V30 21 C 3.4641 -0.5 0.0 0
M  V30 22 C 0.866 -5.9999 0.0 0
M  V30 23 O -1.732 -4.5 0.0 0
M  V30 24 C -0.866 -6.0 0.0 0
M  V30 25 C 0.0 -6.4999 0.0 0 CFG=2
M  V30 26 C -2.598 -5.0 0.0 0 CFG=1
M  V30 27 O -0.866 -7.0 0.0 0
M  V30 28 C 0.0 -7.4999 0.0 0 CFG=2
M  V30 29 O -3.4641 -4.5 0.0 0
M  V30 30 C -2.598 -6.0 0.0 0
M  V30 31 O 0.866 -8.0 0.0 0
M  V30 32 C -0.866 -7.9999 0.0 0
M  V30 33 C -4.3301 -5.0 0.0 0 CFG=1
M  V30 34 C -3.4641 -6.5 0.0 0 CFG=2
M  V30 35 C -4.3301 -6.0 0.0 0 CFG=1
M  V30 36 C -5.1961 -4.5 0.0 0
M  V30 37 N -3.4641 -7.5 0.0 0
M  V30 38 O -5.1961 -6.5 0.0 0
M  V30 END ATOM
M  V30 BEGIN BOND
M  V30 1 2 1 2
M  V30 2 1 2 3
M  V30 3 1 2 4
M  V30 4 2 3 5
M  V30 5 1 3 6
M  V30 6 2 4 7
M  V30 7 1 4 8
M  V30 8 1 5 9
M  V30 9 1 5 10
M  V30 10 1 6 11
M  V30 11 2 6 12
M  V30 12 1 7 13
M  V30 13 1 7 14
M  V30 14 2 8 15
M  V30 15 2 10 16
M  V30 16 1 17 10
M  V30 17 2 11 18
M  V30 18 1 12 19
M  V30 19 1 13 20
M  V30 20 2 14 21
M  V30 21 1 16 22
M  V30 22 1 17 23 CFG=1
M  V30 23 1 17 24
M  V30 24 1 25 22
M  V30 25 1 26 23 CFG=3
M  V30 26 1 25 27 CFG=1
M  V30 27 1 28 25
M  V30 28 1 26 29
M  V30 29 1 26 30
M  V30 30 1 28 31 CFG=3
M  V30 31 1 28 32
M  V30 32 1 33 29
M  V30 33 1 34 30
M  V30 34 1 35 33
M  V30 35 1 33 36 CFG=1
M  V30 36 1 34 37 CFG=1
M  V30 37 1 35 38 CFG=1
M  V30 38 1 8 11
M  V30 39 1 12 16
M  V30 40 1 15 21
M  V30 41 1 24 25
M  V30 42 1 34 35
M  V30 END BOND
M  V30 BEGIN COLLECTION
M  V30 MDLV30/STERAC1 ATOMS=(7 17 25 26 28 33 34 35)
M  V30 END COLLECTION
M  V30 END CTAB
M  END
>  <Molecule Name>
_c001

>  <status>
-

>  <cas>
28008-55-1

>  <name>
DAUNORUBICINOL

>  <ID>
1636

>  <Smiles>
C[C@H]([C@](C[C@H]1O[C@H](C[C@H]2N)O[C@H](C)[C@@H]2O)(Cc(c(O)c2C(c3cccc(OC)c33)=O)c1c(O)c2C3=O)O)O

$$$$
_c001
Actelion Java MolfileCreator 2.0

  0  0  0  0  0  0              0 V3000
M  V30 BEGIN CTAB
M  V30 COUNTS 23 25 0 0 0
M  V30 BEGIN ATOM
M  V30 1 O 7.7942 0.9999 0.0 0
M  V30 2 C 6.9282 1.4999 0.0 0
M  V30 3 C 8.6602 1.4999 0.0 0
M  V30 4 C 6.9282 2.4999 0.0 0
M  V30 5 C 6.0621 0.9999 0.0 0
M  V30 6 O 7.7942 2.9999 0.0 0
M  V30 7 C 6.0621 2.9999 0.0 0
M  V30 8 C 5.1961 1.4999 0.0 0
M  V30 9 C 7.7942 3.9999 0.0 0
M  V30 10 C 5.1961 2.4999 0.0 0
M  V30 11 C 4.3301 0.9999 0.0 0 CFG=1
M  V30 12 C 4.3301 2.9999 0.0 0
M  V30 13 N 3.4641 1.4999 0.0 0
M  V30 14 C 4.3301 0.0 0.0 0
M  V30 15 C 3.4641 2.4999 0.0 0
M  V30 16 C 2.598 0.9999 0.0 0
M  V30 17 C 3.4641 -0.4999 0.0 0 CFG=2
M  V30 18 C 2.598 0.0 0.0 0 CFG=1
M  V30 19 O 3.4641 -1.5 0.0 0
M  V30 20 C 1.732 -0.5 0.0 0
M  V30 21 C 0.866 0.0 0.0 0
M  V30 22 C 0.866 1.0 0.0 0
M  V30 23 C 0.0 -0.5 0.0 0
M  V30 END ATOM
M  V30 BEGIN BOND
M  V30 1 1 1 2
M  V30 2 1 1 3
M  V30 3 2 2 4
M  V30 4 1 2 5
M  V30 5 1 4 6
M  V30 6 1 4 7
M  V30 7 2 5 8
M  V30 8 1 6 9
M  V30 9 2 7 10
M  V30 10 1 11 8
M  V30 11 1 10 12
M  V30 12 1 11 13 CFG=3
M  V30 13 1 11 14
M  V30 14 1 12 15
M  V30 15 1 13 16
M  V30 16 1 17 14
M  V30 17 1 18 16
M  V30 18 1 17 19 CFG=1
M  V30 19 1 18 20 CFG=1
M  V30 20 1 20 21
M  V30 21 1 21 22
M  V30 22 1 21 23
M  V30 23 1 8 10
M  V30 24 1 13 15
M  V30 25 1 17 18
M  V30 END BOND
M  V30 BEGIN COLLECTION
M  V30 MDLV30/STERAC1 ATOMS=(3 11 17 18)
M  V30 END COLLECTION
M  V30 END CTAB
M  END
>  <Molecule Name>
_c001

>  <status>
-

>  <cas>
85081-18-1

>  <name>
M TETRABENAZINE

>  <ID>
1637

>  <Smiles>
CC(C)C[C@@H](CN(CCc1c2)[C@@H](C3)c1cc(OC)c2OC)[C@@H]3O

$$$$
_c001
Actelion Java MolfileCreator 2.0

  0  0  0  0  0  0              0 V3000
M  V30 BEGIN CTAB
M  V30 COUNTS 23 25 0 0 0
M  V30 BEGIN ATOM
M  V30 1 O 7.7942 0.9999 0.0 0
M  V30 2 C 6.9282 1.4999 0.0 0
M  V30 3 C 8.6602 1.4999 0.0 0
M  V30 4 C 6.9282 2.4999 0.0 0
M  V30 5 C 6.0621 0.9999 0.0 0
M  V30 6 O 7.7942 2.9999 0.0 0
M  V30 7 C 6.0621 2.9999 0.0 0
M  V30 8 C 5.1961 1.4999 0.0 0
M  V30 9 C 7.7942 3.9999 0.0 0
M  V30 10 C 5.1961 2.4999 0.0 0
M  V30 11 C 4.3301 0.9999 0.0 0 CFG=1
M  V30 12 C 4.3301 2.9999 0.0 0
M  V30 13 N 3.4641 1.4999 0.0 0
M  V30 14 C 4.3301 0.0 0.0 0
M  V30 15 C 3.4641 2.4999 0.0 0
M  V30 16 C 2.598 0.9999 0.0 0
M  V30 17 C 3.4641 -0.4999 0.0 0 CFG=1
M  V30 18 C 2.598 0.0 0.0 0 CFG=1
M  V30 19 O 3.4641 -1.5 0.0 0
M  V30 20 C 1.732 -0.5 0.0 0
M  V30 21 C 0.866 0.0 0.0 0
M  V30 22 C 0.866 1.0 0.0 0
M  V30 23 C 0.0 -0.5 0.0 0
M  V30 END ATOM
M  V30 BEGIN BOND
M  V30 1 1 1 2
M  V30 2 1 1 3
M  V30 3 2 2 4
M  V30 4 1 2 5
M  V30 5 1 4 6
M  V30 6 1 4 7
M  V30 7 2 5 8
M  V30 8 1 6 9
M  V30 9 2 7 10
M  V30 10 1 11 8
M  V30 11 1 10 12
M  V30 12 1 11 13 CFG=3
M  V30 13 1 11 14
M  V30 14 1 12 15
M  V30 15 1 13 16
M  V30 16 1 17 14
M  V30 17 1 18 16
M  V30 18 1 17 19 CFG=3
M  V30 19 1 18 20 CFG=1
M  V30 20 1 20 21
M  V30 21 1 21 22
M  V30 22 1 21 23
M  V30 23 1 8 10
M  V30 24 1 13 15
M  V30 25 1 17 18
M  V30 END BOND
M  V30 BEGIN COLLECTION
M  V30 MDLV30/STERAC1 ATOMS=(3 11 17 18)
M  V30 END COLLECTION
M  V30 END CTAB
M  END
>  <Molecule Name>
_c001

>  <status>
-

>  <cas>
164104-49-8

>  <name>
M TETRABENAZINE

>  <ID>
1638

>  <Smiles>
CC(C)C[C@@H](CN(CCc1c2)[C@@H](C3)c1cc(OC)c2OC)[C@H]3O

$$$$
_c001
Actelion Java MolfileCreator 2.0

  0  0  0  0  0  0              0 V3000
M  V30 BEGIN CTAB
M  V30 COUNTS 32 34 0 0 0
M  V30 BEGIN ATOM
M  V30 1 P 5.1961 -2.25 0.0 0 CFG=2
M  V30 2 O 4.4461 -3.549 0.0 0
M  V30 3 O 5.1961 -0.75 0.0 0
M  V30 4 O 6.4952 -3.0 0.0 0
M  V30 5 O 3.6961 -2.2499 0.0 0 CHG=-1
M  V30 6 P 3.8971 0.0 0.0 0 CFG=2
M  V30 7 P 7.7942 -2.25 0.0 0
M  V30 8 O 4.6471 1.299 0.0 0
M  V30 9 O 2.598 -0.75 0.0 0
M  V30 10 O 3.1471 1.299 0.0 0 CHG=-1
M  V30 11 O 8.5442 -3.549 0.0 0
M  V30 12 O 9.0932 -1.5 0.0 0 CHG=-1
M  V30 13 O 7.0442 -0.9509 0.0 0 CHG=-1
M  V30 14 C 1.299 0.0 0.0 0
M  V30 15 C 0.0 -0.75 0.0 0 CFG=2
M  V30 16 O -1.3703 -0.1398 0.0 0
M  V30 17 C -0.1567 -2.2417 0.0 0 CFG=2
M  V30 18 C -2.374 -1.2546 0.0 0 CFG=1
M  V30 19 O 0.9579 -3.2454 0.0 0
M  V30 20 C -1.624 -2.5536 0.0 0 CFG=2
M  V30 21 N -3.8658 -1.0978 0.0 0
M  V30 22 O -2.2341 -3.9239 0.0 0
M  V30 23 C -4.6158 0.2012 0.0 0
M  V30 24 C -4.8695 -2.2125 0.0 0
M  V30 25 N -4.1522 1.6278 0.0 0
M  V30 26 C -6.083 -0.1106 0.0 0
M  V30 27 N -6.2398 -1.6024 0.0 0
M  V30 28 C -5.1559 2.7425 0.0 0
M  V30 29 C -7.0867 1.004 0.0 0
M  V30 30 N -6.6232 2.4306 0.0 0
M  V30 31 N -4.6924 4.1691 0.0 0
M  V30 32 O -8.5539 0.6922 0.0 0
M  V30 END ATOM
M  V30 BEGIN BOND
M  V30 1 2 1 2
M  V30 2 1 1 3
M  V30 3 1 1 4
M  V30 4 1 1 5 CFG=1
M  V30 5 1 6 3
M  V30 6 1 4 7
M  V30 7 2 6 8
M  V30 8 1 6 9
M  V30 9 1 6 10 CFG=3
M  V30 10 2 7 11
M  V30 11 1 7 12
M  V30 12 1 7 13
M  V30 13 1 9 14
M  V30 14 1 15 14 CFG=1
M  V30 15 1 15 16
M  V30 16 1 17 15
M  V30 17 1 18 16
M  V30 18 1 17 19 CFG=3
M  V30 19 1 20 17
M  V30 20 1 18 21 CFG=1
M  V30 21 1 20 22 CFG=1
M  V30 22 1 21 23
M  V30 23 1 21 24
M  V30 24 2 23 25
M  V30 25 1 23 26
M  V30 26 2 24 27
M  V30 27 1 25 28
M  V30 28 2 26 29
M  V30 29 2 28 30
M  V30 30 1 28 31
M  V30 31 1 29 32
M  V30 32 1 18 20
M  V30 33 1 26 27
M  V30 34 1 29 30
M  V30 END BOND
M  V30 BEGIN COLLECTION
M  V30 MDLV30/STERAC1 ATOMS=(6 1 6 15 17 18 20)
M  V30 END COLLECTION
M  V30 END CTAB
M  END
>  <Molecule Name>
_c001

>  <status>
-

>  <cas>
72490-81-4

>  <name>
M NELARABINE

>  <ID>
1639

>  <Smiles>
Nc1nc(O)c2ncn([C@H]([C@@H]3O)O[C@@H](CO[P@]([O-])(O[P@]([O-])(OP([O-])([O-])=O)=O)=O)[C@@H]3O)c2n1

$$$$
_c001
Actelion Java MolfileCreator 2.0

  0  0  0  0  0  0              0 V3000
M  V30 BEGIN CTAB
M  V30 COUNTS 32 34 0 0 0
M  V30 BEGIN ATOM
M  V30 1 P 5.1961 -2.25 0.0 0 CFG=2
M  V30 2 O 4.4461 -3.549 0.0 0
M  V30 3 O 5.1961 -0.75 0.0 0
M  V30 4 O 6.4952 -3.0 0.0 0
M  V30 5 O 3.6961 -2.2499 0.0 0 CHG=-1
M  V30 6 P 3.8971 0.0 0.0 0 CFG=2
M  V30 7 P 7.7942 -2.25 0.0 0
M  V30 8 O 4.6471 1.299 0.0 0
M  V30 9 O 2.598 -0.75 0.0 0
M  V30 10 O 3.1471 1.299 0.0 0 CHG=-1
M  V30 11 O 8.5442 -3.549 0.0 0
M  V30 12 O 9.0932 -1.5 0.0 0 CHG=-1
M  V30 13 O 7.0442 -0.9509 0.0 0 CHG=-1
M  V30 14 C 1.299 0.0 0.0 0
M  V30 15 C 0.0 -0.75 0.0 0 CFG=2
M  V30 16 C -1.3703 -0.1398 0.0 0
M  V30 17 C -0.1567 -2.2417 0.0 0 CFG=2
M  V30 18 C -1.6821 1.3273 0.0 0
M  V30 19 C -2.374 -1.2546 0.0 0 CFG=1
M  V30 20 O 0.9579 -3.2454 0.0 0
M  V30 21 C -1.624 -2.5536 0.0 0
M  V30 22 N -3.8658 -1.0978 0.0 0
M  V30 23 C -4.6158 0.2012 0.0 0
M  V30 24 C -4.8695 -2.2125 0.0 0
M  V30 25 N -4.1522 1.6278 0.0 0
M  V30 26 C -6.083 -0.1106 0.0 0
M  V30 27 N -6.2398 -1.6024 0.0 0
M  V30 28 C -5.1559 2.7425 0.0 0
M  V30 29 C -7.0867 1.004 0.0 0
M  V30 30 N -6.6232 2.4306 0.0 0
M  V30 31 N -4.6924 4.1691 0.0 0
M  V30 32 O -8.5539 0.6922 0.0 0
M  V30 END ATOM
M  V30 BEGIN BOND
M  V30 1 2 1 2
M  V30 2 1 1 3
M  V30 3 1 1 4
M  V30 4 1 1 5 CFG=1
M  V30 5 1 6 3
M  V30 6 1 4 7
M  V30 7 2 6 8
M  V30 8 1 6 9
M  V30 9 1 6 10 CFG=3
M  V30 10 2 7 11
M  V30 11 1 7 12
M  V30 12 1 7 13
M  V30 13 1 9 14
M  V30 14 1 15 14 CFG=1
M  V30 15 1 15 16
M  V30 16 1 17 15
M  V30 17 2 16 18
M  V30 18 1 19 16
M  V30 19 1 17 20 CFG=3
M  V30 20 1 17 21
M  V30 21 1 19 22 CFG=1
M  V30 22 1 22 23
M  V30 23 1 22 24
M  V30 24 1 23 25
M  V30 25 2 23 26
M  V30 26 2 24 27
M  V30 27 2 25 28
M  V30 28 1 26 29
M  V30 29 1 28 30
M  V30 30 1 28 31
M  V30 31 2 29 32
M  V30 32 1 19 21
M  V30 33 1 26 27
M  V30 34 1 29 30
M  V30 END BOND
M  V30 BEGIN COLLECTION
M  V30 MDLV30/STERAC1 ATOMS=(5 1 6 15 17 19)
M  V30 END COLLECTION
M  V30 END CTAB
M  END
>  <Molecule Name>
_c001

>  <status>
-

>  <cas>
336608-44-7

>  <name>
M ENTECAVIR

>  <ID>
1640

>  <Smiles>
C=C([C@@H](CO[P@]([O-])(O[P@]([O-])(OP([O-])([O-])=O)=O)=O)[C@@H](C1)O)[C@@H]1n1c(N=C(N)NC2=O)c2nc1

$$$$
_c001
Actelion Java MolfileCreator 2.0

  0  0  0  0  0  0              0 V3000
M  V30 BEGIN CTAB
M  V30 COUNTS 32 34 0 0 0
M  V30 BEGIN ATOM
M  V30 1 Cl 16.592 2.3325 0.0 0
M  V30 2 C 15.3784 3.2142 0.0 0
M  V30 3 N 15.5352 4.706 0.0 0
M  V30 4 N 14.0081 2.6041 0.0 0
M  V30 5 C 14.3217 5.5877 0.0 0
M  V30 6 C 12.7946 3.4858 0.0 0
M  V30 7 N 14.4785 7.0795 0.0 0
M  V30 8 C 12.9514 4.9776 0.0 0
M  V30 9 N 11.3274 3.1739 0.0 0
M  V30 10 N 11.5811 5.5877 0.0 0
M  V30 11 C 10.5774 4.473 0.0 0
M  V30 12 C 10.7173 1.8036 0.0 0 CFG=2
M  V30 13 O 9.25 1.4917 0.0 0
M  V30 14 C 11.4673 0.5046 0.0 0 CFG=1
M  V30 15 C 9.0932 0.0 0.0 0 CFG=1
M  V30 16 F 12.959 0.3478 0.0 0
M  V30 17 C 10.4636 -0.6101 0.0 0 CFG=1
M  V30 18 C 7.7942 -0.75 0.0 0
M  V30 19 O 10.7754 -2.0773 0.0 0
M  V30 20 O 6.4952 0.0 0.0 0
M  V30 21 P 5.1961 -0.75 0.0 0 CFG=1
M  V30 22 O 4.4461 -2.049 0.0 0
M  V30 23 O 3.8971 0.0 0.0 0
M  V30 24 O 5.9461 -2.049 0.0 0 CHG=-1
M  V30 25 P 3.8971 1.5 0.0 0 CFG=1
M  V30 26 O 4.647 2.799 0.0 0
M  V30 27 O 2.598 2.25 0.0 0
M  V30 28 O 5.397 1.4999 0.0 0 CHG=-1
M  V30 29 P 1.299 1.5 0.0 0
M  V30 30 O 0.549 2.799 0.0 0
M  V30 31 O 0.0 0.75 0.0 0 CHG=-1
M  V30 32 O 2.049 0.2009 0.0 0 CHG=-1
M  V30 END ATOM
M  V30 BEGIN BOND
M  V30 1 1 1 2
M  V30 2 2 2 3
M  V30 3 1 2 4
M  V30 4 1 3 5
M  V30 5 2 4 6
M  V30 6 1 5 7
M  V30 7 2 5 8
M  V30 8 1 6 9
M  V30 9 1 8 10
M  V30 10 1 9 11
M  V30 11 1 12 9 CFG=1
M  V30 12 1 12 13
M  V30 13 1 14 12
M  V30 14 1 15 13
M  V30 15 1 14 16 CFG=1
M  V30 16 1 17 14
M  V30 17 1 15 18 CFG=1
M  V30 18 1 17 19 CFG=3
M  V30 19 1 18 20
M  V30 20 1 21 20
M  V30 21 2 21 22
M  V30 22 1 21 23
M  V30 23 1 21 24 CFG=3
M  V30 24 1 25 23
M  V30 25 2 25 26
M  V30 26 1 25 27
M  V30 27 1 25 28 CFG=1
M  V30 28 1 27 29
M  V30 29 2 29 30
M  V30 30 1 29 31
M  V30 31 1 29 32
M  V30 32 1 6 8
M  V30 33 2 10 11
M  V30 34 1 15 17
M  V30 END BOND
M  V30 BEGIN COLLECTION
M  V30 MDLV30/STERAC1 ATOMS=(6 12 14 15 17 21 25)
M  V30 END COLLECTION
M  V30 END CTAB
M  END
>  <Molecule Name>
_c001

>  <status>
-

>  <cas>
134646-41-6

>  <name>
M CLOFARABINE

>  <ID>
1641

>  <Smiles>
Nc1c2ncn([C@@H]([C@H]3F)O[C@H](CO[P@]([O-])(O[P@]([O-])(OP([O-])([O-])=O)=O)=O)[C@H]3O)c2nc(Cl)n1

$$$$
_c001
Actelion Java MolfileCreator 2.0

  0  0  0  0  0  0              0 V3000
M  V30 BEGIN CTAB
M  V30 COUNTS 34 39 0 0 0
M  V30 BEGIN ATOM
M  V30 1 O -2.514 8.306 0.0 0
M  V30 2 C -1.6301 7.0893 0.0 0
M  V30 3 C -0.1345 7.2465 0.0 0
M  V30 4 C -2.2418 5.7155 0.0 0
M  V30 5 C 0.7493 6.0299 0.0 0
M  V30 6 C -1.3578 4.4989 0.0 0
M  V30 7 C 0.1377 4.6561 0.0 0 CFG=2
M  V30 8 C 2.2449 6.1871 0.0 0
M  V30 9 C 1.0216 3.4395 0.0 0 CFG=1
M  V30 10 C -0.4739 3.2823 0.0 0
M  V30 11 C 3.1289 4.9705 0.0 0
M  V30 12 C 0.4099 2.0656 0.0 0 CFG=1
M  V30 13 C 2.5172 3.5967 0.0 0 CFG=1
M  V30 14 O -1.0856 1.9084 0.0 0
M  V30 15 C 1.2939 0.849 0.0 0
M  V30 16 C 3.4011 2.38 0.0 0 CFG=1
M  V30 17 C 2.7895 1.0062 0.0 0 CFG=1
M  V30 18 C 4.8967 2.2228 0.0 0
M  V30 19 C 3.907 0.0 0.0 0 CFG=1
M  V30 20 C 2.306 -0.2549 0.0 0
M  V30 21 C 5.2094 0.7519 0.0 0 CFG=2
M  V30 22 O 4.2197 -1.4709 0.0 0
M  V30 23 C 2.649 -0.8256 0.0 0
M  V30 24 O 6.3269 -0.2543 0.0 0
M  V30 25 C 5.7153 -1.6281 0.0 0 CFG=1
M  V30 26 O 2.6047 -2.2557 0.0 0
M  V30 27 C 1.3023 0.0 0.0 0
M  V30 28 C 6.4672 -2.9305 0.0 0
M  V30 29 O 0.0 -0.7519 0.0 0
M  V30 30 C 5.7153 -4.2328 0.0 0
M  V30 31 C 7.971 -2.9305 0.0 0
M  V30 32 C 6.4672 -5.5352 0.0 0
M  V30 33 C 8.7229 -4.2328 0.0 0
M  V30 34 C 7.971 -5.5352 0.0 0
M  V30 END ATOM
M  V30 BEGIN BOND
M  V30 1 2 1 2
M  V30 2 1 2 3
M  V30 3 1 2 4
M  V30 4 2 3 5
M  V30 5 2 4 6
M  V30 6 1 7 5
M  V30 7 1 5 8
M  V30 8 1 9 7
M  V30 9 1 7 10 CFG=3
M  V30 10 1 8 11
M  V30 11 1 9 12 CFG=3
M  V30 12 1 13 9
M  V30 13 1 12 14 CFG=3
M  V30 14 1 12 15
M  V30 15 1 16 13
M  V30 16 1 17 15
M  V30 17 1 16 18 CFG=3
M  V30 18 1 19 17
M  V30 19 1 17 20 CFG=3
M  V30 20 1 21 18
M  V30 21 1 19 22
M  V30 22 1 19 23 CFG=3
M  V30 23 1 21 24 CFG=1
M  V30 24 1 25 22
M  V30 25 2 23 26
M  V30 26 1 23 27
M  V30 27 1 25 28 CFG=1
M  V30 28 1 27 29
M  V30 29 1 28 30
M  V30 30 1 28 31
M  V30 31 1 30 32
M  V30 32 1 31 33
M  V30 33 1 32 34
M  V30 34 1 6 7
M  V30 35 1 13 11 CFG=1
M  V30 36 1 16 17
M  V30 37 1 19 21
M  V30 38 1 24 25
M  V30 39 1 33 34
M  V30 END BOND
M  V30 BEGIN COLLECTION
M  V30 MDLV30/STERAC1 ATOMS=(9 7 9 12 13 16 17 19 21 25)
M  V30 END COLLECTION
M  V30 END CTAB
M  END
>  <Molecule Name>
_c001

>  <status>
-

>  <cas>
161115-59-9

>  <name>
M CICLESONIDE

>  <ID>
1642

>  <Smiles>
C[C@@]1(C[C@@H]2O)[C@]3(C(CO)=O)O[C@H](C4CCCCC4)O[C@@H]3C[C@H]1[C@H](CC1)[C@H]2[C@@](C)(C=C2)C1=CC2=O

$$$$
_c001
Actelion Java MolfileCreator 2.0

  0  0  0  0  0  0              0 V3000
M  V30 BEGIN CTAB
M  V30 COUNTS 18 19 0 0 0
M  V30 BEGIN ATOM
M  V30 1 S 2.7026 0.9945 0.0 0
M  V30 2 C 2.598 0.0 0.0 0
M  V30 3 C 3.6807 1.2024 0.0 0
M  V30 4 N 3.5116 -0.4067 0.0 0
M  V30 5 N 1.732 -0.5 0.0 0
M  V30 6 N 4.0874 2.1159 0.0 0 CHG=1
M  V30 7 C 4.1807 0.3364 0.0 0
M  V30 8 C 0.866 0.0 0.0 0
M  V30 9 O 5.082 2.2205 0.0 0
M  V30 10 O 3.4997 2.9249 0.0 0 CHG=-1
M  V30 11 O 0.866 1.0 0.0 0
M  V30 12 C 0.0 -0.5 0.0 0
M  V30 13 C -0.866 0.0 0.0 0
M  V30 14 C 0.0 -1.4999 0.0 0
M  V30 15 O -0.866 1.0 0.0 0
M  V30 16 C -1.732 -0.4999 0.0 0
M  V30 17 C -0.866 -1.9999 0.0 0
M  V30 18 C -1.732 -1.4999 0.0 0
M  V30 END ATOM
M  V30 BEGIN BOND
M  V30 1 1 1 2
M  V30 2 1 1 3
M  V30 3 2 2 4
M  V30 4 1 2 5
M  V30 5 1 3 6
M  V30 6 2 3 7
M  V30 7 1 5 8
M  V30 8 2 6 9
M  V30 9 1 6 10
M  V30 10 2 8 11
M  V30 11 1 8 12
M  V30 12 2 12 13
M  V30 13 1 12 14
M  V30 14 1 13 15
M  V30 15 1 13 16
M  V30 16 2 14 17
M  V30 17 2 16 18
M  V30 18 1 4 7
M  V30 19 1 17 18
M  V30 END BOND
M  V30 END CTAB
M  END
>  <Molecule Name>
_c001

>  <status>
-

>  <cas>
173903-47-4

>  <name>
TIZOXANIDE

>  <ID>
1643

>  <Smiles>
[O-][N+](c1cnc(NC(c(cccc2)c2O)=O)s1)=O

$$$$
_c001
Actelion Java MolfileCreator 2.0

  0  0  0  0  0  0              0 V3000
M  V30 BEGIN CTAB
M  V30 COUNTS 18 19 0 0 0
M  V30 BEGIN ATOM
M  V30 1 P 4.3301 0.0 0.0 0
M  V30 2 O 4.8301 -0.866 0.0 0
M  V30 3 O 5.1961 0.4999 0.0 0 CHG=-1
M  V30 4 O 3.8301 0.866 0.0 0 CHG=-1
M  V30 5 C 3.4641 -0.5 0.0 0
M  V30 6 O 2.598 0.0 0.0 0
M  V30 7 C 1.732 -0.5 0.0 0
M  V30 8 C 0.866 0.0 0.0 0
M  V30 9 N 0.0 -0.5 0.0 0
M  V30 10 C -0.9135 -0.0932 0.0 0
M  V30 11 C -0.1045 -1.4945 0.0 0
M  V30 12 N -1.2225 0.8577 0.0 0
M  V30 13 C -1.5826 -0.8364 0.0 0
M  V30 14 N -1.0826 -1.7024 0.0 0
M  V30 15 C -2.2007 1.0657 0.0 0
M  V30 16 C -2.5608 -0.6284 0.0 0
M  V30 17 N -2.8698 0.3225 0.0 0
M  V30 18 N -3.2299 -1.3716 0.0 0
M  V30 END ATOM
M  V30 BEGIN BOND
M  V30 1 2 1 2
M  V30 2 1 1 3
M  V30 3 1 1 4
M  V30 4 1 1 5
M  V30 5 1 5 6
M  V30 6 1 6 7
M  V30 7 1 7 8
M  V30 8 1 8 9
M  V30 9 1 9 10
M  V30 10 1 9 11
M  V30 11 2 10 12
M  V30 12 1 10 13
M  V30 13 2 11 14
M  V30 14 1 12 15
M  V30 15 2 13 16
M  V30 16 2 15 17
M  V30 17 1 16 18
M  V30 18 1 13 14
M  V30 19 1 16 17
M  V30 END BOND
M  V30 END CTAB
M  END
>  <Molecule Name>
_c001

>  <status>
-

>  <cas>
106941-25-7

>  <name>
ADEFOVIR

>  <ID>
1644

>  <Smiles>
Nc1c2ncn(CCOCP([O-])([O-])=O)c2ncn1

$$$$
_c001
Actelion Java MolfileCreator 2.0

  0  0  0  0  0  0              0 V3000
M  V30 BEGIN CTAB
M  V30 COUNTS 30 31 0 0 0
M  V30 BEGIN ATOM
M  V30 1 P 9.0932 1.5 0.0 0 CFG=2
M  V30 2 O 7.5933 1.4999 0.0 0
M  V30 3 O 9.0932 0.0 0.0 0
M  V30 4 O 10.3923 2.25 0.0 0
M  V30 5 O 8.3433 2.799 0.0 0 CHG=-1
M  V30 6 P 7.7942 -0.75 0.0 0 CFG=2
M  V30 7 P 11.6913 1.5 0.0 0
M  V30 8 O 7.0442 -2.049 0.0 0
M  V30 9 O 6.4952 0.0 0.0 0
M  V30 10 O 8.5442 -2.049 0.0 0 CHG=-1
M  V30 11 O 10.9413 0.2009 0.0 0
M  V30 12 O 12.9904 0.75 0.0 0 CHG=-1
M  V30 13 O 12.4413 2.799 0.0 0 CHG=-1
M  V30 14 C 5.1961 -0.75 0.0 0
M  V30 15 C 3.8971 0.0 0.0 0 CFG=2
M  V30 16 O 2.598 -0.75 0.0 0
M  V30 17 C 3.8971 1.5 0.0 0
M  V30 18 C 1.299 0.0 0.0 0
M  V30 19 O 2.598 2.25 0.0 0
M  V30 20 N 0.0 -0.75 0.0 0
M  V30 21 C -1.3703 -0.1398 0.0 0
M  V30 22 C -0.1567 -2.2417 0.0 0
M  V30 23 N -1.8338 1.2866 0.0 0
M  V30 24 C -2.374 -1.2546 0.0 0
M  V30 25 N -1.624 -2.5536 0.0 0
M  V30 26 C -3.301 1.5985 0.0 0
M  V30 27 C -3.8412 -0.9427 0.0 0
M  V30 28 N -4.3047 0.4838 0.0 0
M  V30 29 N -3.7646 3.0251 0.0 0
M  V30 30 O -4.8449 -2.0574 0.0 0
M  V30 END ATOM
M  V30 BEGIN BOND
M  V30 1 2 1 2
M  V30 2 1 1 3
M  V30 3 1 1 4
M  V30 4 1 1 5 CFG=3
M  V30 5 1 6 3
M  V30 6 1 4 7
M  V30 7 2 6 8
M  V30 8 1 6 9
M  V30 9 1 6 10 CFG=1
M  V30 10 2 7 11
M  V30 11 1 7 12
M  V30 12 1 7 13
M  V30 13 1 9 14
M  V30 14 1 15 14
M  V30 15 1 15 16 CFG=3
M  V30 16 1 15 17
M  V30 17 1 16 18
M  V30 18 1 17 19
M  V30 19 1 18 20
M  V30 20 1 20 21
M  V30 21 1 20 22
M  V30 22 1 21 23
M  V30 23 2 21 24
M  V30 24 2 22 25
M  V30 25 2 23 26
M  V30 26 1 24 27
M  V30 27 1 26 28
M  V30 28 1 26 29
M  V30 29 2 27 30
M  V30 30 1 24 25
M  V30 31 1 27 28
M  V30 END BOND
M  V30 BEGIN COLLECTION
M  V30 MDLV30/STERAC1 ATOMS=(3 1 6 15)
M  V30 END COLLECTION
M  V30 END CTAB
M  END
>  <Molecule Name>
_c001

>  <status>
-

>  <cas>
86761-38-8

>  <name>
M GANCICLOVIR

>  <ID>
1645

>  <Smiles>
NC(NC1=O)=Nc2c1ncn2CO[C@H](CO)CO[P@]([O-])(O[P@]([O-])(OP([O-])([O-])=O)=O)=O

$$$$
_c001
Actelion Java MolfileCreator 2.0

  0  0  0  0  0  0              0 V3000
M  V30 BEGIN CTAB
M  V30 COUNTS 30 31 0 0 0
M  V30 BEGIN ATOM
M  V30 1 P 9.0932 1.5 0.0 0 CFG=2
M  V30 2 O 7.5933 1.4999 0.0 0
M  V30 3 O 9.0932 0.0 0.0 0
M  V30 4 O 10.3923 2.25 0.0 0
M  V30 5 O 8.3433 2.799 0.0 0 CHG=-1
M  V30 6 P 7.7942 -0.75 0.0 0 CFG=2
M  V30 7 P 11.6913 1.5 0.0 0
M  V30 8 O 7.0442 -2.049 0.0 0
M  V30 9 O 6.4952 0.0 0.0 0
M  V30 10 O 8.5442 -2.049 0.0 0 CHG=-1
M  V30 11 O 10.9413 0.2009 0.0 0
M  V30 12 O 12.9904 0.75 0.0 0 CHG=-1
M  V30 13 O 12.4413 2.799 0.0 0 CHG=-1
M  V30 14 C 5.1961 -0.75 0.0 0
M  V30 15 C 3.8971 0.0 0.0 0 CFG=1
M  V30 16 O 2.598 -0.75 0.0 0
M  V30 17 C 3.8971 1.5 0.0 0
M  V30 18 C 1.299 0.0 0.0 0
M  V30 19 O 2.598 2.25 0.0 0
M  V30 20 N 0.0 -0.75 0.0 0
M  V30 21 C -1.3703 -0.1398 0.0 0
M  V30 22 C -0.1567 -2.2417 0.0 0
M  V30 23 N -1.8338 1.2866 0.0 0
M  V30 24 C -2.374 -1.2546 0.0 0
M  V30 25 N -1.624 -2.5536 0.0 0
M  V30 26 C -3.301 1.5985 0.0 0
M  V30 27 C -3.8412 -0.9427 0.0 0
M  V30 28 N -4.3047 0.4838 0.0 0
M  V30 29 N -3.7646 3.0251 0.0 0
M  V30 30 O -4.8449 -2.0574 0.0 0
M  V30 END ATOM
M  V30 BEGIN BOND
M  V30 1 2 1 2
M  V30 2 1 1 3
M  V30 3 1 1 4
M  V30 4 1 1 5 CFG=3
M  V30 5 1 6 3
M  V30 6 1 4 7
M  V30 7 2 6 8
M  V30 8 1 6 9
M  V30 9 1 6 10 CFG=1
M  V30 10 2 7 11
M  V30 11 1 7 12
M  V30 12 1 7 13
M  V30 13 1 9 14
M  V30 14 1 15 14
M  V30 15 1 15 16 CFG=1
M  V30 16 1 15 17
M  V30 17 1 16 18
M  V30 18 1 17 19
M  V30 19 1 18 20
M  V30 20 1 20 21
M  V30 21 1 20 22
M  V30 22 1 21 23
M  V30 23 2 21 24
M  V30 24 2 22 25
M  V30 25 2 23 26
M  V30 26 1 24 27
M  V30 27 1 26 28
M  V30 28 1 26 29
M  V30 29 2 27 30
M  V30 30 1 24 25
M  V30 31 1 27 28
M  V30 END BOND
M  V30 BEGIN COLLECTION
M  V30 MDLV30/STERAC1 ATOMS=(3 1 6 15)
M  V30 END COLLECTION
M  V30 END CTAB
M  END
>  <Molecule Name>
_c001

>  <status>
-

>  <cas>
86761-38-8

>  <name>
M GANCICLOVIR

>  <ID>
1646

>  <Smiles>
NC(NC1=O)=Nc2c1ncn2CO[C@@H](CO)CO[P@]([O-])(O[P@]([O-])(OP([O-])([O-])=O)=O)=O

$$$$
_c001
Actelion Java MolfileCreator 2.0

  0  0  0  0  0  0              0 V3000
M  V30 BEGIN CTAB
M  V30 COUNTS 33 36 0 0 0
M  V30 BEGIN ATOM
M  V30 1 O 5.082 2.2205 0.0 0
M  V30 2 C 4.0874 2.1159 0.0 0
M  V30 3 O 3.4997 2.9249 0.0 0 CHG=-1
M  V30 4 C 3.6807 1.2024 0.0 0
M  V30 5 N 2.7026 0.9945 0.0 0
M  V30 6 C 4.1807 0.3364 0.0 0
M  V30 7 C 2.598 0.0 0.0 0
M  V30 8 C 1.9594 1.6636 0.0 0
M  V30 9 N 3.5116 -0.4067 0.0 0
M  V30 10 C 5.1752 0.2318 0.0 0
M  V30 11 C 1.732 -0.5 0.0 0
M  V30 12 C 1.0084 1.3546 0.0 0
M  V30 13 O 5.2798 1.2264 0.0 0
M  V30 14 C 6.1697 0.1273 0.0 0
M  V30 15 C 5.0707 -0.7626 0.0 0
M  V30 16 C 1.732 -1.5 0.0 0
M  V30 17 C 0.2652 2.0237 0.0 0
M  V30 18 C 0.8004 0.3764 0.0 0
M  V30 19 C 0.866 -2.0 0.0 0
M  V30 20 C -0.6857 1.7147 0.0 0
M  V30 21 C -0.1505 0.0674 0.0 0
M  V30 22 C -0.8937 0.7366 0.0 0
M  V30 23 C -1.8447 0.4275 0.0 0
M  V30 24 C -2.5879 1.0967 0.0 0
M  V30 25 C -2.0526 -0.5505 0.0 0
M  V30 26 C -2.3799 2.0748 0.0 0
M  V30 27 C -3.5389 0.7876 0.0 0
M  V30 28 C -3.0037 -0.8595 0.0 0
M  V30 29 N -1.4664 2.4815 0.0 0
M  V30 30 N -3.0491 2.818 0.0 0
M  V30 31 C -3.7468 -0.1904 0.0 0
M  V30 32 N -1.5709 3.4761 0.0 0
M  V30 33 N -2.5491 3.684 0.0 0
M  V30 END ATOM
M  V30 BEGIN BOND
M  V30 1 2 1 2
M  V30 2 1 2 3
M  V30 3 1 2 4
M  V30 4 1 4 5
M  V30 5 2 4 6
M  V30 6 1 5 7
M  V30 7 1 5 8
M  V30 8 1 6 9
M  V30 9 1 6 10
M  V30 10 1 7 11
M  V30 11 1 8 12
M  V30 12 1 10 13
M  V30 13 1 10 14
M  V30 14 1 10 15
M  V30 15 1 11 16
M  V30 16 2 12 17
M  V30 17 1 12 18
M  V30 18 1 16 19
M  V30 19 1 17 20
M  V30 20 2 18 21
M  V30 21 2 20 22
M  V30 22 1 22 23
M  V30 23 2 23 24
M  V30 24 1 23 25
M  V30 25 1 24 26
M  V30 26 1 24 27
M  V30 27 2 25 28
M  V30 28 1 26 29
M  V30 29 2 26 30
M  V30 30 2 27 31
M  V30 31 2 29 32
M  V30 32 1 30 33
M  V30 33 2 7 9
M  V30 34 1 21 22
M  V30 35 1 28 31
M  V30 36 1 32 33
M  V30 END BOND
M  V30 END CTAB
M  END
>  <Molecule Name>
_c001

>  <status>
-

>  <cas>
144689-24-7

>  <name>
OLMESARTAN

>  <ID>
1647

>  <Smiles>
CCCc1nc(C(C)(C)O)c(C([O-])=O)n1Cc(cc1)ccc1-c(cccc1)c1-c1n[nH]nn1

$$$$
_c001
Actelion Java MolfileCreator 2.0

  0  0  0  0  0  0              0 V3000
M  V30 BEGIN CTAB
M  V30 COUNTS 32 33 0 0 0
M  V30 BEGIN ATOM
M  V30 1 F 0.1819 -4.3472 0.0 0
M  V30 2 C -0.4872 -3.6041 0.0 0
M  V30 3 F -1.2303 -4.2732 0.0 0
M  V30 4 F -1.1563 -2.8609 0.0 0
M  V30 5 C 0.2559 -2.9349 0.0 0
M  V30 6 C 1.2069 -3.2439 0.0 0
M  V30 7 C 0.048 -1.9568 0.0 0
M  V30 8 C 1.9501 -2.5748 0.0 0
M  V30 9 C 0.7911 -1.2876 0.0 0
M  V30 10 O 2.9011 -2.8838 0.0 0
M  V30 11 C 1.7422 -1.5967 0.0 0
M  V30 12 C 3.6443 -2.2147 0.0 0
M  V30 13 C 4.5953 -2.5237 0.0 0 CFG=1
M  V30 14 O 4.8032 -3.5019 0.0 0
M  V30 15 C 5.3385 -1.8546 0.0 0
M  V30 16 C 6.2895 -2.1636 0.0 0
M  V30 17 C 7.0327 -1.4945 0.0 0 CFG=2
M  V30 18 C 8.0108 -1.7024 0.0 0 CFG=1
M  V30 19 C 6.9282 -0.5 0.0 0 CFG=1
M  V30 20 O 8.4176 -2.6159 0.0 0
M  V30 21 C 8.5108 -0.8364 0.0 0
M  V30 22 C 7.8417 -0.0932 0.0 0 CFG=1
M  V30 23 C 6.0621 0.0 0.0 0
M  V30 24 O 8.0496 0.8848 0.0 0
M  V30 25 C 5.1961 -0.5 0.0 0
M  V30 26 C 4.3301 0.0 0.0 0
M  V30 27 C 4.3301 1.0 0.0 0
M  V30 28 C 3.4641 1.5 0.0 0
M  V30 29 C 3.4641 2.5 0.0 0
M  V30 30 C 2.598 3.0 0.0 0
M  V30 31 O 1.732 2.5 0.0 0
M  V30 32 O 2.598 4.0 0.0 0 CHG=-1
M  V30 END ATOM
M  V30 BEGIN BOND
M  V30 1 1 1 2
M  V30 2 1 2 3
M  V30 3 1 2 4
M  V30 4 1 2 5
M  V30 5 2 5 6
M  V30 6 1 5 7
M  V30 7 1 6 8
M  V30 8 2 7 9
M  V30 9 1 8 10
M  V30 10 2 8 11
M  V30 11 1 10 12
M  V30 12 1 13 12
M  V30 13 1 13 14 CFG=3
M  V30 14 1 13 15
M  V30 15 2 15 16
M  V30 16 1 17 16 CFG=1
M  V30 17 1 18 17
M  V30 18 1 19 17
M  V30 19 1 18 20 CFG=3
M  V30 20 1 18 21
M  V30 21 1 22 19
M  V30 22 1 19 23 CFG=3
M  V30 23 1 22 24 CFG=3
M  V30 24 1 23 25
M  V30 25 2 25 26
M  V30 26 1 26 27
M  V30 27 1 27 28
M  V30 28 1 28 29
M  V30 29 1 29 30
M  V30 30 2 30 31
M  V30 31 1 30 32
M  V30 32 1 9 11
M  V30 33 1 21 22
M  V30 END BOND
M  V30 BEGIN COLLECTION
M  V30 MDLV30/STERAC1 ATOMS=(5 13 17 18 19 22)
M  V30 END COLLECTION
M  V30 END CTAB
M  END
>  <Molecule Name>
_c001

>  <status>
-

>  <cas>
54276-17-4

>  <name>
M TRAVOPROST

>  <ID>
1648

>  <Smiles>
[O-]C(CCC/C=C\C[C@H]([C@@H](C[C@@H]1O)O)[C@@H]1/C=C/[C@@H](COc1cccc(C(F)(F)F)c1)O)=O

$$$$
_c001
Actelion Java MolfileCreator 2.0

  0  0  0  0  0  0              0 V3000
M  V30 BEGIN CTAB
M  V30 COUNTS 23 26 0 0 0
M  V30 BEGIN ATOM
M  V30 1 Cl 0.866 0.0 0.0 0
M  V30 2 C 0.0 -0.5 0.0 0
M  V30 3 C -0.866 0.0 0.0 0
M  V30 4 C 0.0 -1.4999 0.0 0
M  V30 5 C -1.732 -0.4999 0.0 0
M  V30 6 C -0.866 -1.9999 0.0 0
M  V30 7 C -1.732 -1.4999 0.0 0
M  V30 8 C -2.5138 0.1234 0.0 0
M  V30 9 C -2.5138 -2.1234 0.0 0
M  V30 10 C -3.4888 -0.099 0.0 0
M  V30 11 C -3.4888 -1.9009 0.0 0
M  V30 12 C -2.2913 -3.0984 0.0 0
M  V30 13 C -3.9226 -0.9999 0.0 0
M  V30 14 N -4.0521 -2.7272 0.0 0
M  V30 15 C -3.0244 -3.7785 0.0 0
M  V30 16 C -1.3357 -3.3931 0.0 0
M  V30 17 C -4.9198 -0.9252 0.0 0
M  V30 18 C -5.0493 -2.6524 0.0 0
M  V30 19 C -2.8018 -4.7535 0.0 0
M  V30 20 C -1.1132 -4.3681 0.0 0
M  V30 21 C -5.4832 -1.7515 0.0 0
M  V30 22 N -1.8463 -5.0482 0.0 0
M  V30 23 O -6.4804 -1.6767 0.0 0
M  V30 END ATOM
M  V30 BEGIN BOND
M  V30 1 1 1 2
M  V30 2 2 2 3
M  V30 3 1 2 4
M  V30 4 1 3 5
M  V30 5 2 4 6
M  V30 6 2 5 7
M  V30 7 1 5 8
M  V30 8 1 7 9
M  V30 9 1 8 10
M  V30 10 1 9 11
M  V30 11 2 9 12
M  V30 12 1 10 13
M  V30 13 1 11 14
M  V30 14 1 12 15
M  V30 15 1 12 16
M  V30 16 1 13 17
M  V30 17 2 14 18
M  V30 18 1 15 19
M  V30 19 1 16 20
M  V30 20 2 17 21
M  V30 21 1 19 22
M  V30 22 1 21 23
M  V30 23 1 6 7
M  V30 24 2 11 13
M  V30 25 1 18 21
M  V30 26 1 20 22
M  V30 END BOND
M  V30 END CTAB
M  END
>  <Molecule Name>
_c001

>  <status>
-

>  <cas>
119410-08-1

>  <name>
M DESLORATADINE

>  <ID>
1649

>  <Smiles>
Oc1cc(CCc(cc(cc2)Cl)c2C2=C3CCNCC3)c2nc1

$$$$
_c001
Actelion Java MolfileCreator 2.0

  0  0  0  0  0  0              0 V3000
M  V30 BEGIN CTAB
M  V30 COUNTS 17 18 0 0 0
M  V30 BEGIN ATOM
M  V30 1 Cl 1.299 0.0 0.0 0
M  V30 2 C 0.0 -0.75 0.0 0
M  V30 3 C -1.299 0.0 0.0 0
M  V30 4 C 0.0 -2.25 0.0 0
M  V30 5 C -2.598 -0.75 0.0 0
M  V30 6 C -1.299 -3.0 0.0 0
M  V30 7 C -2.598 -2.25 0.0 0
M  V30 8 N -3.8971 -3.0 0.0 0
M  V30 9 C -5.1961 -2.25 0.0 0
M  V30 10 C -3.8971 -4.5 0.0 0
M  V30 11 N -6.4952 -3.0 0.0 0
M  V30 12 N -5.1961 -0.75 0.0 0
M  V30 13 N -5.1961 -5.25 0.0 0
M  V30 14 C -3.1471 -5.799 0.0 0
M  V30 15 C -2.3971 -4.4999 0.0 0
M  V30 16 C -6.4952 -4.5 0.0 0
M  V30 17 N -7.7942 -5.25 0.0 0
M  V30 END ATOM
M  V30 BEGIN BOND
M  V30 1 1 1 2
M  V30 2 2 2 3
M  V30 3 1 2 4
M  V30 4 1 3 5
M  V30 5 2 4 6
M  V30 6 2 5 7
M  V30 7 1 7 8
M  V30 8 1 8 9
M  V30 9 1 8 10
M  V30 10 2 9 11
M  V30 11 1 9 12
M  V30 12 1 10 13
M  V30 13 1 10 14
M  V30 14 1 10 15
M  V30 15 1 11 16
M  V30 16 1 16 17
M  V30 17 1 6 7
M  V30 18 2 13 16
M  V30 END BOND
M  V30 END CTAB
M  END
>  <Molecule Name>
_c001

>  <status>
-

>  <cas>
516-21-2

>  <name>
CYCLOGUANIL

>  <ID>
1650

>  <Smiles>
CC1(C)N=C(N)N=C(N)N1c(cc1)ccc1Cl

$$$$
_c001
Actelion Java MolfileCreator 2.0

  0  0  0  0  0  0              0 V3000
M  V30 BEGIN CTAB
M  V30 COUNTS 12 12 0 0 0
M  V30 BEGIN ATOM
M  V30 1 O 2.8116 -2.7819 0.0 0
M  V30 2 C 4.2382 -3.2454 0.0 0
M  V30 3 N 4.55 -4.7127 0.0 0
M  V30 4 C 5.3529 -2.2417 0.0 0
M  V30 5 N 6.8201 -2.5536 0.0 0
M  V30 6 C 5.1961 -0.75 0.0 0
M  V30 7 C 7.5701 -1.2546 0.0 0
M  V30 8 N 3.8971 0.0 0.0 0
M  V30 9 N 6.5664 -0.1398 0.0 0
M  V30 10 N 2.598 -0.75 0.0 0
M  V30 11 N 1.299 0.0 0.0 0
M  V30 12 C 0.0 -0.75 0.0 0
M  V30 END ATOM
M  V30 BEGIN BOND
M  V30 1 2 1 2
M  V30 2 1 2 3
M  V30 3 1 2 4
M  V30 4 1 4 5
M  V30 5 2 4 6
M  V30 6 2 5 7
M  V30 7 1 6 8
M  V30 8 1 6 9
M  V30 9 2 8 10
M  V30 10 1 10 11
M  V30 11 1 11 12
M  V30 12 1 7 9
M  V30 END BOND
M  V30 END CTAB
M  END
>  <Molecule Name>
_c001

>  <status>
-

>  <cas>
3413-72-7

>  <name>
M TEMOZOLOMIDE

>  <ID>
1651

>  <Smiles>
CN/N=N/c1c(C(N)=O)nc[nH]1

$$$$
_c001
Actelion Java MolfileCreator 2.0

  0  0  0  0  0  0              0 V3000
M  V30 BEGIN CTAB
M  V30 COUNTS 60 65 0 0 0
M  V30 BEGIN ATOM
M  V30 1 O 2.9008 -3.3261 0.0 0
M  V30 2 C 2.3763 -2.4747 0.0 0
M  V30 3 N 3.152 -1.8435 0.0 0
M  V30 4 C 1.4637 -2.8836 0.0 0
M  V30 5 C 3.4641 -0.5 0.0 0
M  V30 6 C 0.4339 -2.9824 0.0 0
M  V30 7 C 1.75 -3.8417 0.0 0
M  V30 8 C 4.3301 0.0 0.0 0
M  V30 9 C 2.598 0.0 0.0 0
M  V30 10 C -0.4779 -2.9059 0.0 0
M  V30 11 O 5.1704 -0.5421 0.0 0
M  V30 12 C 4.4618 1.3298 0.0 0
M  V30 13 C 2.598 0.9999 0.0 0
M  V30 14 C 1.732 -0.5 0.0 0
M  V30 15 C -1.3599 -2.3521 0.0 0
M  V30 16 C 5.2321 1.9675 0.0 0
M  V30 17 C 3.5244 1.678 0.0 0
M  V30 18 O 1.7062 1.4524 0.0 0
M  V30 19 N 1.732 -1.5 0.0 0
M  V30 20 C -2.2631 -1.9981 0.0 0 CFG=2
M  V30 21 O 6.1695 1.6193 0.0 0
M  V30 22 C 5.0649 2.9534 0.0 0
M  V30 23 C 3.3572 2.664 0.0 0
M  V30 24 N 0.866 -2.0 0.0 0
M  V30 25 C -2.8942 -1.2224 0.0 0 CFG=1
M  V30 26 C -2.8926 -2.7474 0.0 0
M  V30 27 C 4.1275 3.3017 0.0 0
M  V30 28 C 5.8352 3.5911 0.0 0
M  V30 29 C 2.5127 3.1995 0.0 0
M  V30 30 C 0.9119 -3.1155 0.0 0
M  V30 31 C 0.0 -1.5 0.0 0
M  V30 32 O -3.7457 -1.7469 0.0 0
M  V30 33 C -3.3031 -0.3099 0.0 0 CFG=1
M  V30 34 O 3.7591 4.2313 0.0 0
M  V30 35 O 1.5831 2.831 0.0 0
M  V30 36 C 2.7611 4.1682 0.0 0 CFG=1
M  V30 37 C 0.0 -3.5 0.0 0
M  V30 38 C -0.866 -2.0 0.0 0
M  V30 39 C -3.4619 0.6774 0.0 0 CFG=2
M  V30 40 C -4.2613 -0.5961 0.0 0
M  V30 41 O 1.2526 4.5136 0.0 0
M  V30 42 C 2.8419 5.1649 0.0 0
M  V30 43 N -0.9385 -3.0564 0.0 0
M  V30 44 O -4.4615 0.6488 0.0 0
M  V30 45 C -3.3597 1.6721 0.0 0 CFG=1
M  V30 46 C 0.2653 4.3548 0.0 0
M  V30 47 C -1.732 -3.5 0.0 0
M  V30 48 C -3.0035 2.6065 0.0 0 CFG=1
M  V30 49 C -4.3326 1.9033 0.0 0
M  V30 50 C -0.7294 4.457 0.0 0
M  V30 51 C -1.8365 -4.4945 0.0 0
M  V30 52 C -2.6237 -3.1237 0.0 0
M  V30 53 O -3.8835 3.0816 0.0 0
M  V30 54 C -2.4177 3.4169 0.0 0 CFG=2
M  V30 55 C -1.642 4.0481 0.0 0 CFG=2
M  V30 56 C -2.8147 -4.7024 0.0 0
M  V30 57 C -3.3147 -3.8364 0.0 0
M  V30 58 C -3.1447 4.1036 0.0 0
M  V30 59 O -2.1665 4.8995 0.0 0
M  V30 60 C -1.6914 5.7794 0.0 0
M  V30 END ATOM
M  V30 BEGIN BOND
M  V30 1 2 1 2
M  V30 2 1 2 3
M  V30 3 1 2 4
M  V30 4 1 3 5
M  V30 5 2 4 6
M  V30 6 1 4 7
M  V30 7 2 5 8
M  V30 8 1 5 9
M  V30 9 1 6 10
M  V30 10 1 8 11
M  V30 11 1 8 12
M  V30 12 2 9 13
M  V30 13 1 9 14
M  V30 14 2 10 15
M  V30 15 2 12 16
M  V30 16 1 12 17
M  V30 17 1 13 18
M  V30 18 2 14 19
M  V30 19 1 20 15
M  V30 20 1 16 21
M  V30 21 1 16 22
M  V30 22 2 17 23
M  V30 23 1 19 24
M  V30 24 1 25 20
M  V30 25 1 20 26 CFG=1
M  V30 26 2 22 27
M  V30 27 1 22 28
M  V30 28 1 23 29
M  V30 29 1 24 30
M  V30 30 1 24 31
M  V30 31 1 25 32 CFG=1
M  V30 32 1 33 25
M  V30 33 1 27 34
M  V30 34 2 29 35
M  V30 35 1 36 29
M  V30 36 1 30 37
M  V30 37 1 31 38
M  V30 38 1 39 33
M  V30 39 1 33 40 CFG=3
M  V30 40 1 36 41
M  V30 41 1 36 42 CFG=1
M  V30 42 1 37 43
M  V30 43 1 39 44 CFG=3
M  V30 44 1 45 39
M  V30 45 1 41 46
M  V30 46 1 43 47
M  V30 47 1 48 45
M  V30 48 1 45 49 CFG=3
M  V30 49 2 46 50
M  V30 50 1 47 51
M  V30 51 1 47 52
M  V30 52 1 48 53 CFG=1
M  V30 53 1 54 48
M  V30 54 1 55 50
M  V30 55 1 51 56
M  V30 56 1 52 57
M  V30 57 1 54 58 CFG=1
M  V30 58 1 55 59 CFG=3
M  V30 59 1 59 60
M  V30 60 1 13 17
M  V30 61 1 23 27
M  V30 62 1 34 36
M  V30 63 1 38 43
M  V30 64 1 54 55
M  V30 65 1 56 57
M  V30 END BOND
M  V30 BEGIN COLLECTION
M  V30 MDLV30/STERAC1 ATOMS=(9 20 25 33 36 39 45 48 54 55)
M  V30 END COLLECTION
M  V30 END CTAB
M  END
>  <Molecule Name>
_c001

>  <status>
-

>  <cas>
79039-56-8

>  <name>
M RIFAPENTINE

>  <ID>
1652

>  <Smiles>
C[C@@H]([C@H]([C@@H](C)[C@@H]([C@H](C)/C=C/C=C(/C)\C(Nc(c(/C=N/N(CC1)CCN1C1CCCC1)c(c1c(C([C@@](C)(O2)O/C=C/[C@H]([C@@H]3C)OC)=O)c2c(C)c(O)c11)O)c1O)=O)O)O)[C@H]3O

$$$$
_c001
Actelion Java MolfileCreator 2.0

  0  0  0  0  0  0              0 V3000
M  V30 BEGIN CTAB
M  V30 COUNTS 19 21 0 0 0
M  V30 BEGIN ATOM
M  V30 1 O 1.732 -0.5 0.0 0
M  V30 2 C 0.866 0.0 0.0 0
M  V30 3 N 0.866 1.0 0.0 0
M  V30 4 N 0.0 -0.5 0.0 0
M  V30 5 C -0.0349 1.4338 0.0 0
M  V30 6 C 1.7669 1.4338 0.0 0
M  V30 7 C -0.2574 2.4088 0.0 0
M  V30 8 C -0.7679 0.7537 0.0 0
M  V30 9 C 1.9895 2.4088 0.0 0
M  V30 10 C 2.5 0.7537 0.0 0
M  V30 11 C -1.213 2.7035 0.0 0
M  V30 12 C 0.366 3.1906 0.0 0 CFG=2
M  V30 13 C -1.7235 1.0484 0.0 0
M  V30 14 C 2.945 2.7035 0.0 0
M  V30 15 C 1.366 3.1906 0.0 0
M  V30 16 C 3.4556 1.0484 0.0 0
M  V30 17 C -1.946 2.0233 0.0 0
M  V30 18 O -0.0678 4.0916 0.0 0
M  V30 19 C 3.6781 2.0233 0.0 0
M  V30 END ATOM
M  V30 BEGIN BOND
M  V30 1 2 1 2
M  V30 2 1 2 3
M  V30 3 1 2 4
M  V30 4 1 3 5
M  V30 5 1 3 6
M  V30 6 2 5 7
M  V30 7 1 5 8
M  V30 8 2 6 9
M  V30 9 1 6 10
M  V30 10 1 7 11
M  V30 11 1 12 7
M  V30 12 2 8 13
M  V30 13 1 9 14
M  V30 14 1 9 15
M  V30 15 2 10 16
M  V30 16 2 11 17
M  V30 17 1 12 18 CFG=1
M  V30 18 2 14 19
M  V30 19 1 12 15
M  V30 20 1 13 17
M  V30 21 1 16 19
M  V30 END BOND
M  V30 BEGIN COLLECTION
M  V30 MDLV30/STERAC1 ATOMS=(1 12)
M  V30 END COLLECTION
M  V30 END CTAB
M  END
>  <Molecule Name>
_c001

>  <status>
-

>  <cas>
104746-03-4

>  <name>
M OXCARBAZEPINE

>  <ID>
1653

>  <Smiles>
NC(N(c1c(CC2O)cccc1)c1c2cccc1)=O

$$$$
_c001
Actelion Java MolfileCreator 2.0

  0  0  0  0  0  0              0 V3000
M  V30 BEGIN CTAB
M  V30 COUNTS 21 22 0 0 0
M  V30 BEGIN ATOM
M  V30 1 P 2.598 0.0 0.0 0
M  V30 2 O 3.098 -0.866 0.0 0
M  V30 3 O 1.732 -0.5 0.0 0
M  V30 4 O 3.4641 0.5 0.0 0 CHG=-1
M  V30 5 O 2.098 0.866 0.0 0 CHG=-1
M  V30 6 C 0.866 0.0 0.0 0
M  V30 7 C 0.0 -0.5 0.0 0 CFG=2
M  V30 8 O -0.9135 -0.0932 0.0 0
M  V30 9 C -0.1045 -1.4945 0.0 0 CFG=2
M  V30 10 C -1.5826 -0.8364 0.0 0 CFG=1
M  V30 11 O 0.6386 -2.1636 0.0 0
M  V30 12 C -1.0826 -1.7024 0.0 0
M  V30 13 N -2.5771 -0.7318 0.0 0
M  V30 14 C -2.9839 0.1816 0.0 0
M  V30 15 C -3.1649 -1.5408 0.0 0
M  V30 16 O -2.3961 0.9906 0.0 0
M  V30 17 N -3.9784 0.2861 0.0 0
M  V30 18 C -4.1595 -1.4363 0.0 0
M  V30 19 C -4.5662 -0.5228 0.0 0
M  V30 20 F -4.7472 -2.2453 0.0 0
M  V30 21 O -5.5607 -0.4182 0.0 0
M  V30 END ATOM
M  V30 BEGIN BOND
M  V30 1 2 1 2
M  V30 2 1 1 3
M  V30 3 1 1 4
M  V30 4 1 1 5
M  V30 5 1 3 6
M  V30 6 1 7 6 CFG=1
M  V30 7 1 7 8
M  V30 8 1 9 7
M  V30 9 1 10 8
M  V30 10 1 9 11 CFG=3
M  V30 11 1 9 12
M  V30 12 1 10 13 CFG=1
M  V30 13 1 13 14
M  V30 14 1 13 15
M  V30 15 2 14 16
M  V30 16 1 14 17
M  V30 17 2 15 18
M  V30 18 1 17 19
M  V30 19 1 18 20
M  V30 20 2 19 21
M  V30 21 1 10 12
M  V30 22 1 18 19
M  V30 END BOND
M  V30 BEGIN COLLECTION
M  V30 MDLV30/STERAC1 ATOMS=(3 7 9 10)
M  V30 END COLLECTION
M  V30 END CTAB
M  END
>  <Molecule Name>
_c001

>  <status>
-

>  <cas>
134-46-3

>  <name>
M FLUOROURACIL

>  <ID>
1654

>  <Smiles>
[O-]P([O-])(OC[C@@H]([C@@H](C1)O)O[C@@H]1N(C=C(C(N1)=O)F)C1=O)=O

$$$$
_c001
Actelion Java MolfileCreator 2.0

  0  0  0  0  0  0              0 V3000
M  V30 BEGIN CTAB
M  V30 COUNTS 29 30 0 0 0
M  V30 BEGIN ATOM
M  V30 1 P 5.1961 -2.25 0.0 0 CFG=2
M  V30 2 O 4.4461 -3.549 0.0 0
M  V30 3 O 5.1961 -0.75 0.0 0
M  V30 4 O 6.4952 -3.0 0.0 0
M  V30 5 O 3.6961 -2.2499 0.0 0 CHG=-1
M  V30 6 P 3.8971 0.0 0.0 0 CFG=1
M  V30 7 P 7.7942 -2.25 0.0 0
M  V30 8 O 4.6471 1.299 0.0 0
M  V30 9 O 2.598 -0.75 0.0 0
M  V30 10 O 3.1471 1.299 0.0 0 CHG=-1
M  V30 11 O 8.5442 -3.549 0.0 0
M  V30 12 O 9.0932 -1.5 0.0 0 CHG=-1
M  V30 13 O 7.0442 -0.9509 0.0 0 CHG=-1
M  V30 14 C 1.299 0.0 0.0 0
M  V30 15 C 0.0 -0.75 0.0 0 CFG=1
M  V30 16 O -1.3703 -0.1398 0.0 0
M  V30 17 C -0.1567 -2.2417 0.0 0 CFG=1
M  V30 18 C -2.374 -1.2546 0.0 0 CFG=2
M  V30 19 O 0.9579 -3.2454 0.0 0
M  V30 20 C -1.624 -2.5536 0.0 0
M  V30 21 N -3.8658 -1.0978 0.0 0
M  V30 22 C -4.4759 0.2724 0.0 0
M  V30 23 C -4.7474 -2.3113 0.0 0
M  V30 24 O -3.5942 1.486 0.0 0
M  V30 25 N -5.9677 0.4292 0.0 0
M  V30 26 C -6.2392 -2.1545 0.0 0
M  V30 27 C -6.8493 -0.7842 0.0 0
M  V30 28 F -7.1209 -3.368 0.0 0
M  V30 29 O -8.3411 -0.6274 0.0 0
M  V30 END ATOM
M  V30 BEGIN BOND
M  V30 1 2 1 2
M  V30 2 1 1 3
M  V30 3 1 1 4
M  V30 4 1 1 5 CFG=1
M  V30 5 1 6 3
M  V30 6 1 4 7
M  V30 7 2 6 8
M  V30 8 1 6 9
M  V30 9 1 6 10 CFG=1
M  V30 10 2 7 11
M  V30 11 1 7 12
M  V30 12 1 7 13
M  V30 13 1 9 14
M  V30 14 1 15 14 CFG=3
M  V30 15 1 15 16
M  V30 16 1 17 15
M  V30 17 1 18 16
M  V30 18 1 17 19 CFG=1
M  V30 19 1 17 20
M  V30 20 1 18 21 CFG=3
M  V30 21 1 21 22
M  V30 22 1 21 23
M  V30 23 2 22 24
M  V30 24 1 22 25
M  V30 25 2 23 26
M  V30 26 1 25 27
M  V30 27 1 26 28
M  V30 28 2 27 29
M  V30 29 1 18 20
M  V30 30 1 26 27
M  V30 END BOND
M  V30 BEGIN COLLECTION
M  V30 MDLV30/STERAC1 ATOMS=(5 1 6 15 17 18)
M  V30 END COLLECTION
M  V30 END CTAB
M  END
>  <Molecule Name>
_c001

>  <status>
-

>  <cas>
2710-64-7

>  <name>
M FLUOROURACIL

>  <ID>
1655

>  <Smiles>
[O-]P([O-])(O[P@@]([O-])(O[P@]([O-])(OC[C@H]([C@H](C1)O)O[C@H]1N(C=C(C(N1)=O)F)C1=O)=O)=O)=O

$$$$
_c001
Actelion Java MolfileCreator 2.0

  0  0  0  0  0  0              0 V3000
M  V30 BEGIN CTAB
M  V30 COUNTS 19 20 0 0 0
M  V30 BEGIN ATOM
M  V30 1 S 7.5467 -1.7024 0.0 0 CFG=2
M  V30 2 O 8.0467 -0.8364 0.0 0
M  V30 3 C 6.5467 -1.7024 0.0 0
M  V30 4 C 8.0467 -2.5684 0.0 0
M  V30 5 C 6.0467 -0.8364 0.0 0
M  V30 6 C 6.0467 -2.5684 0.0 0
M  V30 7 C 7.5467 -3.4344 0.0 0
M  V30 8 C 5.0467 -0.8364 0.0 0
M  V30 9 C 5.0467 -2.5684 0.0 0
M  V30 10 C 8.0467 -4.3005 0.0 0
M  V30 11 N 4.3776 -0.0932 0.0 0
M  V30 12 C 4.5467 -1.7024 0.0 0
M  V30 13 C 3.4641 -0.5 0.0 0
M  V30 14 N 3.5686 -1.4945 0.0 0
M  V30 15 N 2.598 0.0 0.0 0
M  V30 16 C 1.732 -0.5 0.0 0
M  V30 17 O 1.732 -1.5 0.0 0
M  V30 18 O 0.866 0.0 0.0 0
M  V30 19 C 0.0 -0.5 0.0 0
M  V30 END ATOM
M  V30 BEGIN BOND
M  V30 1 2 1 2
M  V30 2 1 1 3
M  V30 3 1 1 4 CFG=1
M  V30 4 2 3 5
M  V30 5 1 3 6
M  V30 6 1 4 7
M  V30 7 1 5 8
M  V30 8 2 6 9
M  V30 9 1 7 10
M  V30 10 1 8 11
M  V30 11 2 8 12
M  V30 12 1 11 13
M  V30 13 1 12 14
M  V30 14 1 13 15
M  V30 15 1 15 16
M  V30 16 2 16 17
M  V30 17 1 16 18
M  V30 18 1 18 19
M  V30 19 1 9 12
M  V30 20 2 13 14
M  V30 END BOND
M  V30 BEGIN COLLECTION
M  V30 MDLV30/STERAC1 ATOMS=(1 1)
M  V30 END COLLECTION
M  V30 END CTAB
M  END
>  <Molecule Name>
_c001

>  <status>
-

>  <cas>
54029-12-8

>  <name>
M ALBENDAZOLE

>  <ID>
1656

>  <Smiles>
CCCS(c(cc1)cc2c1nc(NC(OC)=O)[nH]2)=O

$$$$
_c001
Actelion Java MolfileCreator 2.0

  0  0  0  0  0  0              0 V3000
M  V30 BEGIN CTAB
M  V30 COUNTS 18 19 0 0 0
M  V30 BEGIN ATOM
M  V30 1 Cl -1.6624 -0.8039 0.0 0
M  V30 2 C -0.2629 -0.2242 0.0 0
M  V30 3 C 0.9388 -1.1464 0.0 0
M  V30 4 C -0.0651 1.2776 0.0 0
M  V30 5 C 2.2523 -0.5092 0.0 0
M  V30 6 C 1.3343 1.8573 0.0 0
M  V30 7 C 2.5361 0.9351 0.0 0
M  V30 8 C 3.9356 1.5148 0.0 0
M  V30 9 C 3.9356 0.0 0.0 0 CFG=1
M  V30 10 C 5.0068 2.5859 0.0 0
M  V30 11 C 2.8645 2.5859 0.0 0
M  V30 12 N 2.7959 -0.8724 0.0 0
M  V30 13 C 5.2475 -0.7574 0.0 0
M  V30 14 C 3.9356 3.6571 0.0 0
M  V30 15 C 2.6237 -2.2722 0.0 0
M  V30 16 C 6.5594 0.0 0.0 0
M  V30 17 C 6.5594 1.5148 0.0 0
M  V30 18 C 7.8713 -0.7574 0.0 0
M  V30 END ATOM
M  V30 BEGIN BOND
M  V30 1 1 1 2
M  V30 2 2 2 3
M  V30 3 1 2 4
M  V30 4 1 3 5
M  V30 5 2 4 6
M  V30 6 2 5 7
M  V30 7 1 7 8
M  V30 8 1 9 8
M  V30 9 1 8 10
M  V30 10 1 8 11
M  V30 11 1 9 12 CFG=3
M  V30 12 1 9 13
M  V30 13 1 10 14
M  V30 14 1 12 15
M  V30 15 1 13 16
M  V30 16 1 16 17
M  V30 17 1 16 18
M  V30 18 1 6 7
M  V30 19 1 11 14
M  V30 END BOND
M  V30 BEGIN COLLECTION
M  V30 MDLV30/STERAC1 ATOMS=(1 9)
M  V30 END COLLECTION
M  V30 END CTAB
M  END
>  <Molecule Name>
_c001

>  <status>
-

>  <cas>
168835-59-4

>  <name>
M SIBUTRAMINE

>  <ID>
1657

>  <Smiles>
CC(C)CC(C1(CCC1)c(cc1)ccc1Cl)NC

$$$$
_c001
Actelion Java MolfileCreator 2.0

  0  0  0  0  0  0              0 V3000
M  V30 BEGIN CTAB
M  V30 COUNTS 18 19 0 0 0
M  V30 BEGIN ATOM
M  V30 1 Cl -1.6624 -0.8039 0.0 0
M  V30 2 C -0.2629 -0.2242 0.0 0
M  V30 3 C 0.9388 -1.1464 0.0 0
M  V30 4 C -0.0651 1.2776 0.0 0
M  V30 5 C 2.2523 -0.5092 0.0 0
M  V30 6 C 1.3343 1.8573 0.0 0
M  V30 7 C 2.5361 0.9351 0.0 0
M  V30 8 C 3.9356 1.5148 0.0 0
M  V30 9 C 3.9356 0.0 0.0 0 CFG=1
M  V30 10 C 5.0068 2.5859 0.0 0
M  V30 11 C 2.8645 2.5859 0.0 0
M  V30 12 N 2.7959 -0.8724 0.0 0
M  V30 13 C 5.2475 -0.7574 0.0 0
M  V30 14 C 3.9356 3.6571 0.0 0
M  V30 15 C 2.6237 -2.2722 0.0 0
M  V30 16 C 6.5594 0.0 0.0 0
M  V30 17 C 6.5594 1.5148 0.0 0
M  V30 18 C 7.8713 -0.7574 0.0 0
M  V30 END ATOM
M  V30 BEGIN BOND
M  V30 1 1 1 2
M  V30 2 2 2 3
M  V30 3 1 2 4
M  V30 4 1 3 5
M  V30 5 2 4 6
M  V30 6 2 5 7
M  V30 7 1 7 8
M  V30 8 1 9 8
M  V30 9 1 8 10
M  V30 10 1 8 11
M  V30 11 1 9 12 CFG=3
M  V30 12 1 9 13
M  V30 13 1 10 14
M  V30 14 1 12 15
M  V30 15 1 13 16
M  V30 16 1 16 17
M  V30 17 1 16 18
M  V30 18 1 6 7
M  V30 19 1 11 14
M  V30 END BOND
M  V30 BEGIN COLLECTION
M  V30 MDLV30/STERAC1 ATOMS=(1 9)
M  V30 END COLLECTION
M  V30 END CTAB
M  END
>  <Molecule Name>
_c001

>  <status>
-

>  <cas>
168835-59-4

>  <name>
M SIBUTRAMINE

>  <ID>
1658

>  <Smiles>
CC(C)CC(C1(CCC1)c(cc1)ccc1Cl)NC

$$$$
_c001
Actelion Java MolfileCreator 2.0

  0  0  0  0  0  0              0 V3000
M  V30 BEGIN CTAB
M  V30 COUNTS 17 18 0 0 0
M  V30 BEGIN ATOM
M  V30 1 Cl -1.6569 -0.8013 0.0 0
M  V30 2 C -0.262 -0.2235 0.0 0
M  V30 3 C 0.9357 -1.1426 0.0 0
M  V30 4 C -0.0649 1.2733 0.0 0
M  V30 5 C 2.2448 -0.5075 0.0 0
M  V30 6 C 1.3299 1.8511 0.0 0
M  V30 7 C 2.5277 0.932 0.0 0
M  V30 8 C 3.9226 1.5098 0.0 0
M  V30 9 C 3.9226 0.0 0.0 0 CFG=1
M  V30 10 C 4.9902 2.5774 0.0 0
M  V30 11 C 2.855 2.5774 0.0 0
M  V30 12 N 2.7867 -0.8695 0.0 0
M  V30 13 C 5.2301 -0.7549 0.0 0
M  V30 14 C 3.9226 3.645 0.0 0
M  V30 15 C 6.5377 0.0 0.0 0
M  V30 16 C 6.5377 1.5098 0.0 0
M  V30 17 C 7.8452 -0.7549 0.0 0
M  V30 END ATOM
M  V30 BEGIN BOND
M  V30 1 1 1 2
M  V30 2 2 2 3
M  V30 3 1 2 4
M  V30 4 1 3 5
M  V30 5 2 4 6
M  V30 6 2 5 7
M  V30 7 1 7 8
M  V30 8 1 9 8
M  V30 9 1 8 10
M  V30 10 1 8 11
M  V30 11 1 9 12 CFG=3
M  V30 12 1 9 13
M  V30 13 1 10 14
M  V30 14 1 13 15
M  V30 15 1 15 16
M  V30 16 1 15 17
M  V30 17 1 6 7
M  V30 18 1 11 14
M  V30 END BOND
M  V30 BEGIN COLLECTION
M  V30 MDLV30/STERAC1 ATOMS=(1 9)
M  V30 END COLLECTION
M  V30 END CTAB
M  END
>  <Molecule Name>
_c001

>  <status>
-

>  <cas>
84467-54-9

>  <name>
M SIBUTRAMINE

>  <ID>
1659

>  <Smiles>
CC(C)CC(C1(CCC1)c(cc1)ccc1Cl)N

$$$$
_c001
Actelion Java MolfileCreator 2.0

  0  0  0  0  0  0              0 V3000
M  V30 BEGIN CTAB
M  V30 COUNTS 17 18 0 0 0
M  V30 BEGIN ATOM
M  V30 1 Cl -1.6569 -0.8013 0.0 0
M  V30 2 C -0.262 -0.2235 0.0 0
M  V30 3 C 0.9357 -1.1426 0.0 0
M  V30 4 C -0.0649 1.2733 0.0 0
M  V30 5 C 2.2448 -0.5075 0.0 0
M  V30 6 C 1.3299 1.8511 0.0 0
M  V30 7 C 2.5277 0.932 0.0 0
M  V30 8 C 3.9226 1.5098 0.0 0
M  V30 9 C 3.9226 0.0 0.0 0 CFG=1
M  V30 10 C 4.9902 2.5774 0.0 0
M  V30 11 C 2.855 2.5774 0.0 0
M  V30 12 N 2.7867 -0.8695 0.0 0
M  V30 13 C 5.2301 -0.7549 0.0 0
M  V30 14 C 3.9226 3.645 0.0 0
M  V30 15 C 6.5377 0.0 0.0 0
M  V30 16 C 6.5377 1.5098 0.0 0
M  V30 17 C 7.8452 -0.7549 0.0 0
M  V30 END ATOM
M  V30 BEGIN BOND
M  V30 1 1 1 2
M  V30 2 2 2 3
M  V30 3 1 2 4
M  V30 4 1 3 5
M  V30 5 2 4 6
M  V30 6 2 5 7
M  V30 7 1 7 8
M  V30 8 1 9 8
M  V30 9 1 8 10
M  V30 10 1 8 11
M  V30 11 1 9 12 CFG=3
M  V30 12 1 9 13
M  V30 13 1 10 14
M  V30 14 1 13 15
M  V30 15 1 15 16
M  V30 16 1 15 17
M  V30 17 1 6 7
M  V30 18 1 11 14
M  V30 END BOND
M  V30 BEGIN COLLECTION
M  V30 MDLV30/STERAC1 ATOMS=(1 9)
M  V30 END COLLECTION
M  V30 END CTAB
M  END
>  <Molecule Name>
_c001

>  <status>
-

>  <cas>
84467-54-9

>  <name>
M SIBUTRAMINE

>  <ID>
1660

>  <Smiles>
CC(C)CC(C1(CCC1)c(cc1)ccc1Cl)N

$$$$
_c001
Actelion Java MolfileCreator 2.0

  0  0  0  0  0  0              0 V3000
M  V30 BEGIN CTAB
M  V30 COUNTS 30 31 0 0 0
M  V30 BEGIN ATOM
M  V30 1 P 9.0932 1.5 0.0 0 CFG=2
M  V30 2 O 7.5933 1.4999 0.0 0
M  V30 3 O 9.0932 0.0 0.0 0
M  V30 4 O 10.3923 2.25 0.0 0
M  V30 5 O 8.3433 2.799 0.0 0 CHG=-1
M  V30 6 P 7.7942 -0.75 0.0 0 CFG=2
M  V30 7 P 11.6913 1.5 0.0 0
M  V30 8 O 7.0442 -2.049 0.0 0
M  V30 9 O 6.4952 0.0 0.0 0
M  V30 10 O 8.5442 -2.049 0.0 0 CHG=-1
M  V30 11 O 10.9413 0.2009 0.0 0
M  V30 12 O 12.9904 0.75 0.0 0 CHG=-1
M  V30 13 O 12.4413 2.799 0.0 0 CHG=-1
M  V30 14 C 5.1961 -0.75 0.0 0
M  V30 15 C 3.8971 0.0 0.0 0 CFG=2
M  V30 16 C 3.8971 1.5 0.0 0
M  V30 17 C 2.598 -0.75 0.0 0
M  V30 18 O 2.598 2.25 0.0 0
M  V30 19 C 1.299 0.0 0.0 0
M  V30 20 N 0.0 -0.75 0.0 0
M  V30 21 C -1.3703 -0.1398 0.0 0
M  V30 22 C -0.1567 -2.2417 0.0 0
M  V30 23 N -1.8338 1.2866 0.0 0
M  V30 24 C -2.374 -1.2546 0.0 0
M  V30 25 N -1.624 -2.5536 0.0 0
M  V30 26 C -3.301 1.5985 0.0 0
M  V30 27 C -3.8412 -0.9427 0.0 0
M  V30 28 N -4.3047 0.4838 0.0 0
M  V30 29 N -3.7646 3.0251 0.0 0
M  V30 30 O -4.8449 -2.0574 0.0 0
M  V30 END ATOM
M  V30 BEGIN BOND
M  V30 1 2 1 2
M  V30 2 1 1 3
M  V30 3 1 1 4
M  V30 4 1 1 5 CFG=3
M  V30 5 1 6 3
M  V30 6 1 4 7
M  V30 7 2 6 8
M  V30 8 1 6 9
M  V30 9 1 6 10 CFG=1
M  V30 10 2 7 11
M  V30 11 1 7 12
M  V30 12 1 7 13
M  V30 13 1 9 14
M  V30 14 1 15 14 CFG=1
M  V30 15 1 15 16
M  V30 16 1 15 17
M  V30 17 1 16 18
M  V30 18 1 17 19
M  V30 19 1 19 20
M  V30 20 1 20 21
M  V30 21 1 20 22
M  V30 22 1 21 23
M  V30 23 2 21 24
M  V30 24 2 22 25
M  V30 25 1 23 26
M  V30 26 1 24 27
M  V30 27 2 26 28
M  V30 28 1 26 29
M  V30 29 2 27 30
M  V30 30 1 24 25
M  V30 31 1 27 28
M  V30 END BOND
M  V30 BEGIN COLLECTION
M  V30 MDLV30/STERAC1 ATOMS=(3 1 6 15)
M  V30 END COLLECTION
M  V30 END CTAB
M  END
>  <Molecule Name>
_c001

>  <status>
-

>  <cas>
145839-78-7

>  <name>
M PENCICLOVIR

>  <ID>
1661

>  <Smiles>
NC(Nc1c2ncn1CC[C@@H](CO)CO[P@]([O-])(O[P@]([O-])(OP([O-])([O-])=O)=O)=O)=NC2=O

$$$$
_c001
Actelion Java MolfileCreator 2.0

  0  0  0  0  0  0              0 V3000
M  V30 BEGIN CTAB
M  V30 COUNTS 30 31 0 0 0
M  V30 BEGIN ATOM
M  V30 1 P 9.0932 1.5 0.0 0 CFG=2
M  V30 2 O 7.5933 1.4999 0.0 0
M  V30 3 O 9.0932 0.0 0.0 0
M  V30 4 O 10.3923 2.25 0.0 0
M  V30 5 O 8.3433 2.799 0.0 0 CHG=-1
M  V30 6 P 7.7942 -0.75 0.0 0 CFG=2
M  V30 7 P 11.6913 1.5 0.0 0
M  V30 8 O 7.0442 -2.049 0.0 0
M  V30 9 O 6.4952 0.0 0.0 0
M  V30 10 O 8.5442 -2.049 0.0 0 CHG=-1
M  V30 11 O 10.9413 0.2009 0.0 0
M  V30 12 O 12.9904 0.75 0.0 0 CHG=-1
M  V30 13 O 12.4413 2.799 0.0 0 CHG=-1
M  V30 14 C 5.1961 -0.75 0.0 0
M  V30 15 C 3.8971 0.0 0.0 0 CFG=1
M  V30 16 C 3.8971 1.5 0.0 0
M  V30 17 C 2.598 -0.75 0.0 0
M  V30 18 O 2.598 2.25 0.0 0
M  V30 19 C 1.299 0.0 0.0 0
M  V30 20 N 0.0 -0.75 0.0 0
M  V30 21 C -1.3703 -0.1398 0.0 0
M  V30 22 C -0.1567 -2.2417 0.0 0
M  V30 23 N -1.8338 1.2866 0.0 0
M  V30 24 C -2.374 -1.2546 0.0 0
M  V30 25 N -1.624 -2.5536 0.0 0
M  V30 26 C -3.301 1.5985 0.0 0
M  V30 27 C -3.8412 -0.9427 0.0 0
M  V30 28 N -4.3047 0.4838 0.0 0
M  V30 29 N -3.7646 3.0251 0.0 0
M  V30 30 O -4.8449 -2.0574 0.0 0
M  V30 END ATOM
M  V30 BEGIN BOND
M  V30 1 2 1 2
M  V30 2 1 1 3
M  V30 3 1 1 4
M  V30 4 1 1 5 CFG=3
M  V30 5 1 6 3
M  V30 6 1 4 7
M  V30 7 2 6 8
M  V30 8 1 6 9
M  V30 9 1 6 10 CFG=1
M  V30 10 2 7 11
M  V30 11 1 7 12
M  V30 12 1 7 13
M  V30 13 1 9 14
M  V30 14 1 15 14 CFG=3
M  V30 15 1 15 16
M  V30 16 1 15 17
M  V30 17 1 16 18
M  V30 18 1 17 19
M  V30 19 1 19 20
M  V30 20 1 20 21
M  V30 21 1 20 22
M  V30 22 1 21 23
M  V30 23 2 21 24
M  V30 24 2 22 25
M  V30 25 1 23 26
M  V30 26 1 24 27
M  V30 27 2 26 28
M  V30 28 1 26 29
M  V30 29 2 27 30
M  V30 30 1 24 25
M  V30 31 1 27 28
M  V30 END BOND
M  V30 BEGIN COLLECTION
M  V30 MDLV30/STERAC1 ATOMS=(3 1 6 15)
M  V30 END COLLECTION
M  V30 END CTAB
M  END
>  <Molecule Name>
_c001

>  <status>
-

>  <cas>
145839-78-7

>  <name>
M PENCICLOVIR

>  <ID>
1662

>  <Smiles>
NC(Nc1c2ncn1CC[C@H](CO)CO[P@]([O-])(O[P@]([O-])(OP([O-])([O-])=O)=O)=O)=NC2=O

$$$$
_c001
Actelion Java MolfileCreator 2.0

  0  0  0  0  0  0              0 V3000
M  V30 BEGIN CTAB
M  V30 COUNTS 22 22 0 0 0
M  V30 BEGIN ATOM
M  V30 1 P 7.7942 -2.25 0.0 0
M  V30 2 O 9.2942 -2.25 0.0 0
M  V30 3 O 7.7942 -0.75 0.0 0
M  V30 4 O 7.7942 -3.75 0.0 0 CHG=-1
M  V30 5 O 6.2942 -2.25 0.0 0 CHG=-1
M  V30 6 P 6.4952 0.0 0.0 0 CFG=1
M  V30 7 O 7.2452 1.299 0.0 0
M  V30 8 O 5.7452 1.299 0.0 0 CHG=-1
M  V30 9 C 5.1961 -0.75 0.0 0
M  V30 10 O 3.8971 0.0 0.0 0
M  V30 11 C 2.598 -0.75 0.0 0 CFG=2
M  V30 12 C 2.598 -2.25 0.0 0
M  V30 13 C 1.299 0.0 0.0 0
M  V30 14 O 3.8971 -3.0 0.0 0
M  V30 15 N 0.0 -0.75 0.0 0
M  V30 16 C -1.299 0.0 0.0 0
M  V30 17 C 0.0 -2.25 0.0 0
M  V30 18 O -1.299 1.5 0.0 0
M  V30 19 N -2.598 -0.75 0.0 0
M  V30 20 C -1.299 -3.0 0.0 0
M  V30 21 C -2.598 -2.25 0.0 0
M  V30 22 N -3.8971 -3.0 0.0 0
M  V30 END ATOM
M  V30 BEGIN BOND
M  V30 1 2 1 2
M  V30 2 1 1 3
M  V30 3 1 1 4
M  V30 4 1 1 5
M  V30 5 1 6 3
M  V30 6 2 6 7
M  V30 7 1 6 8 CFG=3
M  V30 8 1 6 9
M  V30 9 1 9 10
M  V30 10 1 11 10 CFG=3
M  V30 11 1 11 12
M  V30 12 1 11 13
M  V30 13 1 12 14
M  V30 14 1 13 15
M  V30 15 1 15 16
M  V30 16 1 15 17
M  V30 17 2 16 18
M  V30 18 1 16 19
M  V30 19 2 17 20
M  V30 20 2 19 21
M  V30 21 1 21 22
M  V30 22 1 20 21
M  V30 END BOND
M  V30 BEGIN COLLECTION
M  V30 MDLV30/STERAC1 ATOMS=(2 6 11)
M  V30 END COLLECTION
M  V30 END CTAB
M  END
>  <Molecule Name>
_c001

>  <status>
-

>  <cas>
142276-30-0

>  <name>
M CIDOFOVIR

>  <ID>
1663

>  <Smiles>
NC(C=CN1C[C@@H](CO)OC[P@]([O-])(OP([O-])([O-])=O)=O)=NC1=O

$$$$
_c001
Actelion Java MolfileCreator 2.0

  0  0  0  0  0  0              0 V3000
M  V30 BEGIN CTAB
M  V30 COUNTS 23 25 0 0 0
M  V30 BEGIN ATOM
M  V30 1 S 12.9904 -6.75 0.0 0
M  V30 2 C 11.6913 -6.0 0.0 0
M  V30 3 C 12.9904 -8.25 0.0 0
M  V30 4 C 10.3923 -6.75 0.0 0
M  V30 5 C 11.6913 -4.5 0.0 0
M  V30 6 C 11.6913 -9.0 0.0 0
M  V30 7 C 9.0932 -6.0 0.0 0
M  V30 8 C 10.3923 -8.25 0.0 0
M  V30 9 C 10.3923 -3.75 0.0 0
M  V30 10 C 9.0932 -4.5 0.0 0
M  V30 11 C 8.8923 -8.2499 0.0 0
M  V30 12 C 9.6423 -9.549 0.0 0
M  V30 13 C 7.7942 -3.75 0.0 0
M  V30 14 C 6.4952 -3.0 0.0 0
M  V30 15 C 5.1961 -2.25 0.0 0
M  V30 16 N 5.1961 -0.75 0.0 0
M  V30 17 C 3.8971 -3.0 0.0 0
M  V30 18 C 3.8971 0.0 0.0 0
M  V30 19 C 2.598 -2.25 0.0 0
M  V30 20 C 2.598 -0.75 0.0 0
M  V30 21 C 1.299 0.0 0.0 0
M  V30 22 O 1.299 1.5 0.0 0
M  V30 23 O 0.0 -0.75 0.0 0 CHG=-1
M  V30 END ATOM
M  V30 BEGIN BOND
M  V30 1 1 1 2
M  V30 2 1 1 3
M  V30 3 2 2 4
M  V30 4 1 2 5
M  V30 5 1 3 6
M  V30 6 1 4 7
M  V30 7 1 4 8
M  V30 8 2 5 9
M  V30 9 2 7 10
M  V30 10 1 8 11
M  V30 11 1 8 12
M  V30 12 1 10 13
M  V30 13 3 13 14
M  V30 14 1 14 15
M  V30 15 2 15 16
M  V30 16 1 15 17
M  V30 17 1 16 18
M  V30 18 2 17 19
M  V30 19 2 18 20
M  V30 20 1 20 21
M  V30 21 2 21 22
M  V30 22 1 21 23
M  V30 23 1 6 8
M  V30 24 1 9 10
M  V30 25 1 19 20
M  V30 END BOND
M  V30 END CTAB
M  END
>  <Molecule Name>
_c001

>  <status>
-

>  <cas>
118292-41-4

>  <name>
M TAZAROTENE

>  <ID>
1664

>  <Smiles>
CC1(C)c(cc(cc2)C#Cc(cc3)ncc3C([O-])=O)c2SCC1

$$$$
_c001
Actelion Java MolfileCreator 2.0

  0  0  0  0  0  0              0 V3000
M  V30 BEGIN CTAB
M  V30 COUNTS 28 29 0 0 0
M  V30 BEGIN ATOM
M  V30 1 O 4.3301 4.0 0.0 0
M  V30 2 C 4.3301 3.0 0.0 0
M  V30 3 O 5.1961 2.5 0.0 0 CHG=-1
M  V30 4 C 3.4641 2.5 0.0 0
M  V30 5 C 3.4641 1.5 0.0 0
M  V30 6 C 2.598 1.0 0.0 0
M  V30 7 C 2.598 0.0 0.0 0
M  V30 8 C 1.732 -0.5 0.0 0
M  V30 9 C 0.866 0.0 0.0 0
M  V30 10 C 0.0 -0.5 0.0 0 CFG=1
M  V30 11 C -0.9135 -0.0932 0.0 0 CFG=1
M  V30 12 C -0.1045 -1.4945 0.0 0 CFG=2
M  V30 13 O -1.1214 0.8848 0.0 0
M  V30 14 C -1.5826 -0.8364 0.0 0
M  V30 15 C -1.0826 -1.7024 0.0 0 CFG=1
M  V30 16 C 0.6386 -2.1636 0.0 0
M  V30 17 O -1.4894 -2.6159 0.0 0
M  V30 18 C 1.5896 -1.8546 0.0 0
M  V30 19 C 2.3328 -2.5237 0.0 0 CFG=1
M  V30 20 O 2.1249 -3.5019 0.0 0
M  V30 21 C 3.2838 -2.2147 0.0 0
M  V30 22 C 4.027 -2.8838 0.0 0
M  V30 23 C 4.978 -2.5748 0.0 0
M  V30 24 C 5.7212 -3.2439 0.0 0
M  V30 25 C 5.1859 -1.5967 0.0 0
M  V30 26 C 6.6722 -2.9349 0.0 0
M  V30 27 C 6.137 -1.2876 0.0 0
M  V30 28 C 6.8801 -1.9568 0.0 0
M  V30 END ATOM
M  V30 BEGIN BOND
M  V30 1 2 1 2
M  V30 2 1 2 3
M  V30 3 1 2 4
M  V30 4 1 4 5
M  V30 5 1 5 6
M  V30 6 1 6 7
M  V30 7 2 7 8
M  V30 8 1 8 9
M  V30 9 1 10 9 CFG=3
M  V30 10 1 11 10
M  V30 11 1 12 10
M  V30 12 1 11 13 CFG=3
M  V30 13 1 11 14
M  V30 14 1 15 12
M  V30 15 1 12 16 CFG=1
M  V30 16 1 15 17 CFG=3
M  V30 17 1 16 18
M  V30 18 1 19 18
M  V30 19 1 19 20 CFG=3
M  V30 20 1 19 21
M  V30 21 1 21 22
M  V30 22 1 22 23
M  V30 23 2 23 24
M  V30 24 1 23 25
M  V30 25 1 24 26
M  V30 26 2 25 27
M  V30 27 2 26 28
M  V30 28 1 14 15
M  V30 29 1 27 28
M  V30 END BOND
M  V30 BEGIN COLLECTION
M  V30 MDLV30/STERAC1 ATOMS=(5 10 11 12 15 19)
M  V30 END COLLECTION
M  V30 END CTAB
M  END
>  <Molecule Name>
_c001

>  <status>
-

>  <cas>
41639-83-2

>  <name>
M LATANOPROST

>  <ID>
1665

>  <Smiles>
[O-]C(CCC/C=C\C[C@H]([C@@H](CC[C@H](CCc1ccccc1)O)[C@@H](C1)O)[C@H]1O)=O

$$$$
_c001
Actelion Java MolfileCreator 2.0

  0  0  0  0  0  0              0 V3000
M  V30 BEGIN CTAB
M  V30 COUNTS 27 28 0 0 0
M  V30 BEGIN ATOM
M  V30 1 S 9.25 1.4917 0.0 0
M  V30 2 C 9.0932 0.0 0.0 0 CFG=2
M  V30 3 C 10.7173 1.8036 0.0 0
M  V30 4 O 10.4636 -0.6101 0.0 0
M  V30 5 C 7.7942 -0.75 0.0 0
M  V30 6 C 11.4673 0.5046 0.0 0 CFG=1
M  V30 7 O 6.4952 0.0 0.0 0
M  V30 8 N 12.9591 0.3478 0.0 0
M  V30 9 P 5.1961 -0.75 0.0 0 CFG=1
M  V30 10 C 13.5692 -1.0225 0.0 0
M  V30 11 C 13.8407 1.5613 0.0 0
M  V30 12 O 4.4461 -2.049 0.0 0
M  V30 13 O 3.8971 0.0 0.0 0
M  V30 14 O 5.9461 -2.049 0.0 0 CHG=-1
M  V30 15 O 12.6875 -2.236 0.0 0
M  V30 16 N 15.0609 -1.1792 0.0 0
M  V30 17 C 15.3325 1.4045 0.0 0
M  V30 18 P 3.8971 1.5 0.0 0 CFG=1
M  V30 19 C 15.9426 0.0342 0.0 0
M  V30 20 O 4.647 2.799 0.0 0
M  V30 21 O 2.598 2.25 0.0 0
M  V30 22 O 5.397 1.4999 0.0 0 CHG=-1
M  V30 23 N 17.4344 -0.1225 0.0 0
M  V30 24 P 1.299 1.5 0.0 0
M  V30 25 O 0.549 2.799 0.0 0
M  V30 26 O 0.0 0.75 0.0 0 CHG=-1
M  V30 27 O 2.049 0.2009 0.0 0 CHG=-1
M  V30 END ATOM
M  V30 BEGIN BOND
M  V30 1 1 2 1
M  V30 2 1 1 3
M  V30 3 1 2 4
M  V30 4 1 2 5 CFG=3
M  V30 5 1 6 3
M  V30 6 1 5 7
M  V30 7 1 6 8 CFG=3
M  V30 8 1 9 7
M  V30 9 1 8 10
M  V30 10 1 8 11
M  V30 11 2 9 12
M  V30 12 1 9 13
M  V30 13 1 9 14 CFG=3
M  V30 14 2 10 15
M  V30 15 1 10 16
M  V30 16 2 11 17
M  V30 17 1 18 13
M  V30 18 2 16 19
M  V30 19 2 18 20
M  V30 20 1 18 21
M  V30 21 1 18 22 CFG=1
M  V30 22 1 19 23
M  V30 23 1 21 24
M  V30 24 2 24 25
M  V30 25 1 24 26
M  V30 26 1 24 27
M  V30 27 1 4 6
M  V30 28 1 17 19
M  V30 END BOND
M  V30 BEGIN COLLECTION
M  V30 MDLV30/STERAC1 ATOMS=(4 2 6 9 18)
M  V30 END COLLECTION
M  V30 END CTAB
M  END
>  <Molecule Name>
_c001

>  <status>
-

>  <cas>
143188-53-8

>  <name>
M LAMIVUDINE

>  <ID>
1666

>  <Smiles>
NC(C=CN1[C@@H]2O[C@H](CO[P@]([O-])(O[P@]([O-])(OP([O-])([O-])=O)=O)=O)SC2)=NC1=O

$$$$
_c001
Actelion Java MolfileCreator 2.0

  0  0  0  0  0  0              0 V3000
M  V30 BEGIN CTAB
M  V30 COUNTS 29 31 0 0 0
M  V30 BEGIN ATOM
M  V30 1 O 12.202 -2.5408 0.0 0
M  V30 2 C 10.7754 -2.0773 0.0 0
M  V30 3 O 9.6607 -3.081 0.0 0 CHG=-1
M  V30 4 C 10.4635 -0.6101 0.0 0 CFG=1
M  V30 5 N 9.0932 0.0 0.0 0
M  V30 6 C 11.4672 0.5046 0.0 0
M  V30 7 C 7.7942 -0.75 0.0 0
M  V30 8 C 9.25 1.4917 0.0 0 CFG=2
M  V30 9 C 10.7172 1.8036 0.0 0 CFG=2
M  V30 10 O 7.7942 -2.25 0.0 0
M  V30 11 C 6.4951 0.0 0.0 0 CFG=1
M  V30 12 C 8.2463 2.6065 0.0 0
M  V30 13 C 11.1808 3.2302 0.0 0
M  V30 14 N 5.1961 -0.75 0.0 0
M  V30 15 C 6.4951 1.5 0.0 0
M  V30 16 C 8.7098 4.033 0.0 0
M  V30 17 C 10.1771 4.3449 0.0 0
M  V30 18 C 3.8971 0.0 0.0 0 CFG=2
M  V30 19 C 3.8971 1.5 0.0 0
M  V30 20 C 2.598 -0.75 0.0 0
M  V30 21 O 5.1961 2.25 0.0 0
M  V30 22 O 2.598 2.25 0.0 0 CHG=-1
M  V30 23 C 1.299 0.0 0.0 0
M  V30 24 C 0.0 -0.75 0.0 0
M  V30 25 C -1.299 0.0 0.0 0
M  V30 26 C 0.0 -2.2499 0.0 0
M  V30 27 C -2.598 -0.7499 0.0 0
M  V30 28 C -1.299 -2.9999 0.0 0
M  V30 29 C -2.598 -2.2499 0.0 0
M  V30 END ATOM
M  V30 BEGIN BOND
M  V30 1 2 1 2
M  V30 2 1 2 3
M  V30 3 1 4 2 CFG=1
M  V30 4 1 4 5
M  V30 5 1 4 6
M  V30 6 1 5 7
M  V30 7 1 8 5 CFG=1
M  V30 8 1 9 6 CFG=3
M  V30 9 2 7 10
M  V30 10 1 11 7
M  V30 11 1 8 12
M  V30 12 1 9 13
M  V30 13 1 11 14 CFG=1
M  V30 14 1 11 15
M  V30 15 1 12 16
M  V30 16 1 13 17
M  V30 17 1 18 14 CFG=1
M  V30 18 1 18 19
M  V30 19 1 18 20
M  V30 20 2 19 21
M  V30 21 1 19 22
M  V30 22 1 20 23
M  V30 23 1 23 24
M  V30 24 2 24 25
M  V30 25 1 24 26
M  V30 26 1 25 27
M  V30 27 2 26 28
M  V30 28 2 27 29
M  V30 29 1 8 9
M  V30 30 1 16 17
M  V30 31 1 28 29
M  V30 END BOND
M  V30 BEGIN COLLECTION
M  V30 MDLV30/STERAC1 ATOMS=(5 4 8 9 11 18)
M  V30 END COLLECTION
M  V30 END CTAB
M  END
>  <Molecule Name>
_c001

>  <status>
-

>  <cas>
87679-71-8

>  <name>
TRANDOLAPRILAT

>  <ID>
1667

>  <Smiles>
C[C@@H](C(N([C@@H](C1)C([O-])=O)[C@@H]2[C@@H]1CCCC2)=O)N[C@@H](CCc1ccccc1)C([O-])=O

$$$$
_c001
Actelion Java MolfileCreator 2.0

  0  0  0  0  0  0              0 V3000
M  V30 BEGIN CTAB
M  V30 COUNTS 26 27 0 0 0
M  V30 BEGIN ATOM
M  V30 1 P 3.8971 0.0 0.0 0 CFG=2
M  V30 2 O 4.6471 1.299 0.0 0
M  V30 3 O 5.1961 -0.75 0.0 0
M  V30 4 O 2.598 -0.75 0.0 0
M  V30 5 O 3.1471 1.299 0.0 0 CHG=-1
M  V30 6 P 5.1961 -2.25 0.0 0
M  V30 7 C 1.299 0.0 0.0 0
M  V30 8 O 6.6961 -2.25 0.0 0
M  V30 9 O 5.1961 -3.75 0.0 0 CHG=-1
M  V30 10 O 3.6961 -2.25 0.0 0 CHG=-1
M  V30 11 C 0.0 -0.75 0.0 0 CFG=1
M  V30 12 O -1.3703 -0.1398 0.0 0
M  V30 13 C -0.1567 -2.2417 0.0 0 CFG=1
M  V30 14 C -2.374 -1.2546 0.0 0 CFG=2
M  V30 15 O 0.9579 -3.2454 0.0 0
M  V30 16 C -1.624 -2.5536 0.0 0
M  V30 17 N -3.8658 -1.0978 0.0 0
M  V30 18 F -2.8375 -3.4353 0.0 0
M  V30 19 F -1.4672 -4.0454 0.0 0
M  V30 20 C -4.4759 0.2724 0.0 0
M  V30 21 C -4.7474 -2.3113 0.0 0
M  V30 22 O -3.5942 1.486 0.0 0
M  V30 23 N -5.9677 0.4292 0.0 0
M  V30 24 C -6.2392 -2.1545 0.0 0
M  V30 25 C -6.8493 -0.7842 0.0 0
M  V30 26 N -8.3411 -0.6274 0.0 0
M  V30 END ATOM
M  V30 BEGIN BOND
M  V30 1 2 1 2
M  V30 2 1 1 3
M  V30 3 1 1 4
M  V30 4 1 1 5 CFG=1
M  V30 5 1 3 6
M  V30 6 1 4 7
M  V30 7 2 6 8
M  V30 8 1 6 9
M  V30 9 1 6 10
M  V30 10 1 11 7 CFG=3
M  V30 11 1 11 12
M  V30 12 1 13 11
M  V30 13 1 14 12
M  V30 14 1 13 15 CFG=1
M  V30 15 1 13 16
M  V30 16 1 14 17 CFG=3
M  V30 17 1 16 18
M  V30 18 1 16 19
M  V30 19 1 17 20
M  V30 20 1 17 21
M  V30 21 2 20 22
M  V30 22 1 20 23
M  V30 23 2 21 24
M  V30 24 2 23 25
M  V30 25 1 25 26
M  V30 26 1 14 16
M  V30 27 1 24 25
M  V30 END BOND
M  V30 BEGIN COLLECTION
M  V30 MDLV30/STERAC1 ATOMS=(4 1 11 13 14)
M  V30 END COLLECTION
M  V30 END CTAB
M  END
>  <Molecule Name>
_c001

>  <status>
-

>  <cas>
116371-66-5

>  <name>
M GEMCITABINE

>  <ID>
1668

>  <Smiles>
NC(C=CN1[C@@H](C2(F)F)O[C@H](CO[P@@]([O-])(OP([O-])([O-])=O)=O)[C@H]2O)=NC1=O

$$$$
_c001
Actelion Java MolfileCreator 2.0

  0  0  0  0  0  0              0 V3000
M  V30 BEGIN CTAB
M  V30 COUNTS 30 31 0 0 0
M  V30 BEGIN ATOM
M  V30 1 P 5.1961 -2.25 0.0 0 CFG=2
M  V30 2 O 4.4462 -3.549 0.0 0
M  V30 3 O 5.1961 -0.75 0.0 0
M  V30 4 O 6.4952 -3.0 0.0 0
M  V30 5 O 3.6962 -2.2499 0.0 0 CHG=-1
M  V30 6 P 3.8971 0.0 0.0 0 CFG=1
M  V30 7 P 7.7942 -2.25 0.0 0
M  V30 8 O 4.6471 1.299 0.0 0
M  V30 9 O 2.598 -0.75 0.0 0
M  V30 10 O 3.1471 1.299 0.0 0 CHG=-1
M  V30 11 O 8.5442 -3.549 0.0 0
M  V30 12 O 9.0933 -1.5 0.0 0 CHG=-1
M  V30 13 O 7.0442 -0.9509 0.0 0 CHG=-1
M  V30 14 C 1.299 0.0 0.0 0
M  V30 15 C 0.0 -0.75 0.0 0 CFG=1
M  V30 16 O -1.3703 -0.1398 0.0 0
M  V30 17 C -0.1567 -2.2417 0.0 0 CFG=1
M  V30 18 C -2.374 -1.2546 0.0 0 CFG=2
M  V30 19 O 0.9579 -3.2454 0.0 0
M  V30 20 C -1.624 -2.5536 0.0 0
M  V30 21 N -3.8658 -1.0978 0.0 0
M  V30 22 F -2.8375 -3.4353 0.0 0
M  V30 23 F -1.4672 -4.0454 0.0 0
M  V30 24 C -4.4759 0.2724 0.0 0
M  V30 25 C -4.7474 -2.3113 0.0 0
M  V30 26 O -3.5942 1.486 0.0 0
M  V30 27 N -5.9677 0.4292 0.0 0
M  V30 28 C -6.2392 -2.1545 0.0 0
M  V30 29 C -6.8493 -0.7842 0.0 0
M  V30 30 N -8.3411 -0.6274 0.0 0
M  V30 END ATOM
M  V30 BEGIN BOND
M  V30 1 2 1 2
M  V30 2 1 1 3
M  V30 3 1 1 4
M  V30 4 1 1 5 CFG=1
M  V30 5 1 6 3
M  V30 6 1 4 7
M  V30 7 2 6 8
M  V30 8 1 6 9
M  V30 9 1 6 10 CFG=1
M  V30 10 2 7 11
M  V30 11 1 7 12
M  V30 12 1 7 13
M  V30 13 1 9 14
M  V30 14 1 15 14 CFG=3
M  V30 15 1 15 16
M  V30 16 1 17 15
M  V30 17 1 18 16
M  V30 18 1 17 19 CFG=1
M  V30 19 1 17 20
M  V30 20 1 18 21 CFG=3
M  V30 21 1 20 22
M  V30 22 1 20 23
M  V30 23 1 21 24
M  V30 24 1 21 25
M  V30 25 2 24 26
M  V30 26 1 24 27
M  V30 27 2 25 28
M  V30 28 2 27 29
M  V30 29 1 29 30
M  V30 30 1 18 20
M  V30 31 1 28 29
M  V30 END BOND
M  V30 BEGIN COLLECTION
M  V30 MDLV30/STERAC1 ATOMS=(5 1 6 15 17 18)
M  V30 END COLLECTION
M  V30 END CTAB
M  END
>  <Molecule Name>
_c001

>  <status>
-

>  <cas>
110988-86-8

>  <name>
M GEMCITABINE

>  <ID>
1669

>  <Smiles>
NC(C=CN1[C@@H](C2(F)F)O[C@H](CO[P@@]([O-])(O[P@]([O-])(OP([O-])([O-])=O)=O)=O)[C@H]2O)=NC1=O

$$$$
_c001
Actelion Java MolfileCreator 2.0

  0  0  0  0  0  0              0 V3000
M  V30 BEGIN CTAB
M  V30 COUNTS 28 29 0 0 0
M  V30 BEGIN ATOM
M  V30 1 P 9.0932 1.5 0.0 0 CFG=2
M  V30 2 O 7.5933 1.4999 0.0 0
M  V30 3 O 9.0932 0.0 0.0 0
M  V30 4 O 10.3923 2.25 0.0 0
M  V30 5 O 8.3433 2.799 0.0 0 CHG=-1
M  V30 6 P 7.7942 -0.75 0.0 0 CFG=2
M  V30 7 P 11.6913 1.5 0.0 0
M  V30 8 O 7.0442 -2.049 0.0 0
M  V30 9 O 6.4952 0.0 0.0 0
M  V30 10 O 8.5442 -2.049 0.0 0 CHG=-1
M  V30 11 O 10.9413 0.2009 0.0 0
M  V30 12 O 12.9904 0.75 0.0 0 CHG=-1
M  V30 13 O 12.4413 2.799 0.0 0 CHG=-1
M  V30 14 C 5.1961 -0.75 0.0 0
M  V30 15 C 3.8971 0.0 0.0 0
M  V30 16 O 2.598 -0.75 0.0 0
M  V30 17 C 1.299 0.0 0.0 0
M  V30 18 N 0.0 -0.75 0.0 0
M  V30 19 C -1.3703 -0.1398 0.0 0
M  V30 20 C -0.1567 -2.2417 0.0 0
M  V30 21 N -1.8338 1.2866 0.0 0
M  V30 22 C -2.374 -1.2546 0.0 0
M  V30 23 N -1.624 -2.5536 0.0 0
M  V30 24 C -3.301 1.5985 0.0 0
M  V30 25 C -3.8412 -0.9427 0.0 0
M  V30 26 N -4.3047 0.4838 0.0 0
M  V30 27 N -3.7646 3.0251 0.0 0
M  V30 28 O -4.8449 -2.0574 0.0 0
M  V30 END ATOM
M  V30 BEGIN BOND
M  V30 1 2 1 2
M  V30 2 1 1 3
M  V30 3 1 1 4
M  V30 4 1 1 5 CFG=3
M  V30 5 1 6 3
M  V30 6 1 4 7
M  V30 7 2 6 8
M  V30 8 1 6 9
M  V30 9 1 6 10 CFG=1
M  V30 10 2 7 11
M  V30 11 1 7 12
M  V30 12 1 7 13
M  V30 13 1 9 14
M  V30 14 1 14 15
M  V30 15 1 15 16
M  V30 16 1 16 17
M  V30 17 1 17 18
M  V30 18 1 18 19
M  V30 19 1 18 20
M  V30 20 1 19 21
M  V30 21 2 19 22
M  V30 22 2 20 23
M  V30 23 2 21 24
M  V30 24 1 22 25
M  V30 25 1 24 26
M  V30 26 1 24 27
M  V30 27 2 25 28
M  V30 28 1 22 23
M  V30 29 1 25 26
M  V30 END BOND
M  V30 BEGIN COLLECTION
M  V30 MDLV30/STERAC1 ATOMS=(2 1 6)
M  V30 END COLLECTION
M  V30 END CTAB
M  END
>  <Molecule Name>
_c001

>  <status>
-

>  <cas>
66341-18-2

>  <name>
M ACYCLOVIR

>  <ID>
1670

>  <Smiles>
NC(NC1=O)=Nc2c1ncn2COCCO[P@]([O-])(O[P@]([O-])(OP([O-])([O-])=O)=O)=O

$$$$

Actelion Java MolfileCreator 2.0

  0  0  0  0  0  0              0 V3000
M  V30 BEGIN CTAB
M  V30 COUNTS 31 34 0 0 0
M  V30 BEGIN ATOM
M  V30 1 Cl 4.5855 0.8848 0.0 0
M  V30 2 C 4.3776 -0.0932 0.0 0
M  V30 3 N 5.0467 -0.8364 0.0 0
M  V30 4 C 3.4641 -0.4999 0.0 0
M  V30 5 C 4.5467 -1.7024 0.0 0
M  V30 6 N 3.5686 -1.4945 0.0 0
M  V30 7 C 2.598 0.0 0.0 0
M  V30 8 C 4.9535 -2.6159 0.0 0
M  V30 9 C 2.8254 -2.1636 0.0 0
M  V30 10 O 1.732 -0.4999 0.0 0
M  V30 11 O 2.598 1.0 0.0 0 CHG=-1
M  V30 12 C 5.948 -2.7205 0.0 0
M  V30 13 C 3.0333 -3.1418 0.0 0
M  V30 14 C 6.3547 -3.634 0.0 0
M  V30 15 C 2.2902 -3.8109 0.0 0
M  V30 16 C 3.9844 -3.4508 0.0 0
M  V30 17 C 7.3492 -3.7385 0.0 0
M  V30 18 C 2.4981 -4.789 0.0 0
M  V30 19 C 4.1923 -4.4289 0.0 0
M  V30 20 C 3.4492 -5.098 0.0 0
M  V30 21 C 3.6571 -6.0762 0.0 0
M  V30 22 C 2.9139 -6.7453 0.0 0
M  V30 23 C 4.6081 -6.3852 0.0 0
M  V30 24 C 1.9629 -6.4363 0.0 0
M  V30 25 C 3.1218 -7.7235 0.0 0
M  V30 26 C 4.8161 -7.3634 0.0 0
M  V30 27 N 1.6539 -5.4853 0.0 0
M  V30 28 N 1.1539 -7.0241 0.0 0
M  V30 29 C 4.0729 -8.0325 0.0 0
M  V30 30 N 0.6539 -5.4853 0.0 0
M  V30 31 N 0.3448 -6.4363 0.0 0
M  V30 END ATOM
M  V30 BEGIN BOND
M  V30 1 1 1 2
M  V30 2 1 2 3
M  V30 3 2 2 4
M  V30 4 2 3 5
M  V30 5 1 4 6
M  V30 6 1 4 7
M  V30 7 1 5 8
M  V30 8 1 6 9
M  V30 9 2 7 10
M  V30 10 1 7 11
M  V30 11 1 8 12
M  V30 12 1 9 13
M  V30 13 1 12 14
M  V30 14 2 13 15
M  V30 15 1 13 16
M  V30 16 1 14 17
M  V30 17 1 15 18
M  V30 18 2 16 19
M  V30 19 2 18 20
M  V30 20 1 20 21
M  V30 21 2 21 22
M  V30 22 1 21 23
M  V30 23 1 22 24
M  V30 24 1 22 25
M  V30 25 2 23 26
M  V30 26 2 24 27
M  V30 27 1 24 28
M  V30 28 2 25 29
M  V30 29 1 27 30
M  V30 30 1 28 31
M  V30 31 1 5 6
M  V30 32 1 19 20
M  V30 33 1 26 29
M  V30 34 2 30 31
M  V30 END BOND
M  V30 END CTAB
M  END
>  <Molecule Name>


>  <status>
-

>  <cas>
124750-92-1

>  <name>
M LOSARTAN

>  <ID>
1671

>  <Smiles>
CCCCc1nc(Cl)c(C([O-])=O)n1Cc(cc1)ccc1-c(cccc1)c1-c1nnn[nH]1

$$$$
_c001
Actelion Java MolfileCreator 2.0

  0  0  0  0  0  0              0 V3000
M  V30 BEGIN CTAB
M  V30 COUNTS 28 29 0 0 0
M  V30 BEGIN ATOM
M  V30 1 O 1.732 -0.5 0.0 0
M  V30 2 N 2.4735 -0.2099 0.0 0 CHG=1
M  V30 3 O 3.6826 -0.3787 0.0 0 CHG=-1
M  V30 4 C 2.598 0.9999 0.0 0
M  V30 5 C 3.4641 1.4999 0.0 0
M  V30 6 C 1.732 1.4999 0.0 0
M  V30 7 C 3.4641 2.4999 0.0 0
M  V30 8 C 4.3301 1.0 0.0 0 CFG=2
M  V30 9 C 1.732 2.4999 0.0 0
M  V30 10 C 2.598 2.9999 0.0 0
M  V30 11 C 4.3301 0.0 0.0 0
M  V30 12 C 5.1961 1.5 0.0 0
M  V30 13 C 5.1961 -0.4999 0.0 0
M  V30 14 C 3.4399 -0.6731 0.0 0
M  V30 15 C 6.0621 1.0 0.0 0
M  V30 16 C 5.1961 2.5 0.0 0
M  V30 17 N 6.0621 0.0 0.0 0
M  V30 18 C 5.1961 -1.4999 0.0 0
M  V30 19 O 2.4105 0.125 0.0 0
M  V30 20 O 3.4641 -1.5 0.0 0
M  V30 21 C 6.9282 1.5 0.0 0
M  V30 22 O 6.0621 3.0 0.0 0
M  V30 23 O 4.3301 2.9999 0.0 0
M  V30 24 C 2.598 -1.9999 0.0 0
M  V30 25 C 4.3301 3.9999 0.0 0
M  V30 26 C 2.598 -2.9999 0.0 0
M  V30 27 C 3.4641 -3.5 0.0 0
M  V30 28 C 1.732 -3.5 0.0 0
M  V30 END ATOM
M  V30 BEGIN BOND
M  V30 1 2 1 2
M  V30 2 1 2 3
M  V30 3 1 2 4
M  V30 4 2 4 5
M  V30 5 1 4 6
M  V30 6 1 5 7
M  V30 7 1 8 5 CFG=1
M  V30 8 2 6 9
M  V30 9 2 7 10
M  V30 10 1 8 11
M  V30 11 1 8 12
M  V30 12 2 11 13
M  V30 13 1 11 14
M  V30 14 2 12 15
M  V30 15 1 12 16
M  V30 16 1 13 17
M  V30 17 1 13 18
M  V30 18 2 14 19
M  V30 19 1 14 20
M  V30 20 1 15 21
M  V30 21 2 16 22
M  V30 22 1 16 23
M  V30 23 1 20 24
M  V30 24 1 23 25
M  V30 25 1 24 26
M  V30 26 1 26 27
M  V30 27 1 26 28
M  V30 28 1 9 10
M  V30 29 1 15 17
M  V30 END BOND
M  V30 BEGIN COLLECTION
M  V30 MDLV30/STERAC1 ATOMS=(1 8)
M  V30 END COLLECTION
M  V30 END CTAB
M  END
>  <Molecule Name>
_c001

>  <status>
-

>  <cas>
63675-72-9

>  <name>
NISOLDIPINE

>  <ID>
1672

>  <Smiles>
CC(C)COC(C(C1c(cccc2)c2[N+]([O-])=O)=C(C)NC(C)=C1C(OC)=O)=O

$$$$
_c001
Actelion Java MolfileCreator 2.0

  0  0  0  0  0  0              0 V3000
M  V30 BEGIN CTAB
M  V30 COUNTS 34 36 0 0 0
M  V30 BEGIN ATOM
M  V30 1 O 3.8971 -3.0 0.0 0
M  V30 2 C 5.1961 -2.25 0.0 0
M  V30 3 O 6.4951 -3.0 0.0 0 CHG=-1
M  V30 4 C 5.1961 -0.75 0.0 0 CFG=1
M  V30 5 N 3.8971 0.0 0.0 0
M  V30 6 C 6.4951 0.0 0.0 0
M  V30 7 C 2.598 -0.75 0.0 0 CFG=2
M  V30 8 C 7.7942 -0.75 0.0 0
M  V30 9 C 1.299 0.0 0.0 0
M  V30 10 C 2.598 -2.25 0.0 0
M  V30 11 C 9.0932 0.0 0.0 0
M  V30 12 O 1.299 1.5 0.0 0
M  V30 13 N 0.0 -0.75 0.0 0
M  V30 14 C 10.3923 -0.75 0.0 0
M  V30 15 C 9.0932 1.4999 0.0 0
M  V30 16 C -1.299 0.0 0.0 0 CFG=2
M  V30 17 C 0.0 -2.25 0.0 0
M  V30 18 C 11.6913 0.0 0.0 0
M  V30 19 C 10.3923 2.2499 0.0 0
M  V30 20 C -1.299 1.5 0.0 0
M  V30 21 C -2.598 -0.7499 0.0 0
M  V30 22 C -1.299 -2.9999 0.0 0
M  V30 23 C 11.6913 1.4999 0.0 0
M  V30 24 O 0.0 2.25 0.0 0
M  V30 25 C -2.598 2.25 0.0 0
M  V30 26 C -2.598 -2.2499 0.0 0
M  V30 27 C -1.299 -4.4999 0.0 0
M  V30 28 C -3.8971 -2.9999 0.0 0
M  V30 29 C -2.598 -5.2499 0.0 0
M  V30 30 C -3.8971 -4.4999 0.0 0
M  V30 31 O -2.598 -6.7499 0.0 0
M  V30 32 O -5.1961 -5.2499 0.0 0
M  V30 33 C -1.299 -7.4999 0.0 0
M  V30 34 C -5.1961 -6.7499 0.0 0
M  V30 END ATOM
M  V30 BEGIN BOND
M  V30 1 2 1 2
M  V30 2 1 2 3
M  V30 3 1 4 2
M  V30 4 1 4 5 CFG=1
M  V30 5 1 4 6
M  V30 6 1 7 5 CFG=1
M  V30 7 1 6 8
M  V30 8 1 7 9
M  V30 9 1 7 10
M  V30 10 1 8 11
M  V30 11 2 9 12
M  V30 12 1 9 13
M  V30 13 2 11 14
M  V30 14 1 11 15
M  V30 15 1 16 13
M  V30 16 1 13 17
M  V30 17 1 14 18
M  V30 18 2 15 19
M  V30 19 1 16 20 CFG=1
M  V30 20 1 16 21
M  V30 21 1 17 22
M  V30 22 2 18 23
M  V30 23 1 20 24
M  V30 24 2 20 25
M  V30 25 1 21 26
M  V30 26 1 22 27
M  V30 27 1 26 28
M  V30 28 2 27 29
M  V30 29 2 28 30
M  V30 30 1 29 31
M  V30 31 1 30 32
M  V30 32 1 31 33
M  V30 33 1 32 34
M  V30 34 1 19 23
M  V30 35 2 22 26
M  V30 36 1 29 30
M  V30 END BOND
M  V30 BEGIN COLLECTION
M  V30 MDLV30/STERAC1 ATOMS=(3 4 7 16)
M  V30 END COLLECTION
M  V30 END CTAB
M  END
>  <Molecule Name>
_c001

>  <status>
-

>  <cas>
103775-14-0

>  <name>
MOEXIPRILAT

>  <ID>
1673

>  <Smiles>
C[C@@H](C(N(Cc(cc1OC)c(C2)cc1OC)[C@@H]2C(O)=C)=O)N[C@@H](CCc1ccccc1)C([O-])=O

$$$$
_c001
Actelion Java MolfileCreator 2.0

  0  0  0  0  0  0              0 V3000
M  V30 BEGIN CTAB
M  V30 COUNTS 18 19 0 0 0
M  V30 BEGIN ATOM
M  V30 1 O -0.866 1.0 0.0 0
M  V30 2 C 0.0 1.5 0.0 0
M  V30 3 C 0.866 1.0 0.0 0
M  V30 4 C 0.0 2.5 0.0 0
M  V30 5 C 1.732 1.5 0.0 0
M  V30 6 C 0.866 3.0 0.0 0
M  V30 7 C 1.732 2.5 0.0 0
M  V30 8 C 2.598 1.0 0.0 0 CFG=1
M  V30 9 O 1.732 0.5 0.0 0
M  V30 10 C 2.598 0.0 0.0 0 CFG=2
M  V30 11 C 3.4641 1.4999 0.0 0
M  V30 12 C 3.4641 -0.5 0.0 0
M  V30 13 C 1.732 -0.5 0.0 0
M  V30 14 C 4.3301 1.0 0.0 0
M  V30 15 C 4.3301 0.0 0.0 0
M  V30 16 N 1.732 -1.5 0.0 0
M  V30 17 C 2.598 -2.0 0.0 0
M  V30 18 C 0.866 -2.0 0.0 0
M  V30 END ATOM
M  V30 BEGIN BOND
M  V30 1 1 1 2
M  V30 2 2 2 3
M  V30 3 1 2 4
M  V30 4 1 3 5
M  V30 5 2 4 6
M  V30 6 2 5 7
M  V30 7 1 8 5
M  V30 8 1 8 9 CFG=1
M  V30 9 1 10 8
M  V30 10 1 8 11
M  V30 11 1 10 12
M  V30 12 1 10 13 CFG=3
M  V30 13 1 11 14
M  V30 14 1 12 15
M  V30 15 1 13 16
M  V30 16 1 16 17
M  V30 17 1 16 18
M  V30 18 1 6 7
M  V30 19 1 14 15
M  V30 END BOND
M  V30 BEGIN COLLECTION
M  V30 MDLV30/STERAC1 ATOMS=(2 8 10)
M  V30 END COLLECTION
M  V30 END CTAB
M  END
>  <Molecule Name>
_c001

>  <status>
-

>  <cas>
144830-14-8

>  <name>
M TRAMADOL

>  <ID>
1674

>  <Smiles>
CN(C)C[C@@H](CCCC1)[C@@]1(c1cccc(O)c1)O

$$$$
_c001
Actelion Java MolfileCreator 2.0

  0  0  0  0  0  0              0 V3000
M  V30 BEGIN CTAB
M  V30 COUNTS 19 20 0 0 0
M  V30 BEGIN ATOM
M  V30 1 O -0.866 1.0 0.0 0
M  V30 2 C 0.0 1.5 0.0 0
M  V30 3 C -0.866 0.0 0.0 0
M  V30 4 C 0.866 1.0 0.0 0
M  V30 5 C 0.0 2.5 0.0 0
M  V30 6 C 1.732 1.5 0.0 0
M  V30 7 C 0.866 3.0 0.0 0
M  V30 8 C 1.732 2.5 0.0 0
M  V30 9 C 2.598 1.0 0.0 0 CFG=1
M  V30 10 O 1.732 0.5 0.0 0
M  V30 11 C 2.598 0.0 0.0 0 CFG=2
M  V30 12 C 3.4641 1.4999 0.0 0
M  V30 13 C 3.4641 -0.5 0.0 0
M  V30 14 C 1.732 -0.5 0.0 0
M  V30 15 C 4.3301 1.0 0.0 0
M  V30 16 C 4.3301 0.0 0.0 0
M  V30 17 N 1.732 -1.5 0.0 0
M  V30 18 C 2.598 -2.0 0.0 0
M  V30 19 C 0.866 -2.0 0.0 0
M  V30 END ATOM
M  V30 BEGIN BOND
M  V30 1 1 1 2
M  V30 2 1 1 3
M  V30 3 2 2 4
M  V30 4 1 2 5
M  V30 5 1 4 6
M  V30 6 2 5 7
M  V30 7 2 6 8
M  V30 8 1 9 6
M  V30 9 1 9 10 CFG=1
M  V30 10 1 11 9
M  V30 11 1 9 12
M  V30 12 1 11 13
M  V30 13 1 11 14 CFG=3
M  V30 14 1 12 15
M  V30 15 1 13 16
M  V30 16 1 14 17
M  V30 17 1 17 18
M  V30 18 1 17 19
M  V30 19 1 7 8
M  V30 20 1 15 16
M  V30 END BOND
M  V30 BEGIN COLLECTION
M  V30 MDLV30/STERAC1 ATOMS=(2 9 11)
M  V30 END COLLECTION
M  V30 END CTAB
M  END
>  <Molecule Name>
_c001

>  <status>
-

>  <cas>
152538-36-8

>  <name>
TRAMADOL

>  <ID>
1675

>  <Smiles>
CN(C)C[C@@H](CCCC1)[C@@]1(c1cccc(OC)c1)O

$$$$
_c001
Actelion Java MolfileCreator 2.0

  0  0  0  0  0  0              0 V3000
M  V30 BEGIN CTAB
M  V30 COUNTS 18 19 0 0 0
M  V30 BEGIN ATOM
M  V30 1 O -0.866 1.0 0.0 0
M  V30 2 C 0.0 1.5 0.0 0
M  V30 3 C 0.866 1.0 0.0 0
M  V30 4 C 0.0 2.5 0.0 0
M  V30 5 C 1.732 1.5 0.0 0
M  V30 6 C 0.866 3.0 0.0 0
M  V30 7 C 1.732 2.5 0.0 0
M  V30 8 C 2.598 1.0 0.0 0 CFG=1
M  V30 9 O 1.732 0.5 0.0 0
M  V30 10 C 2.598 0.0 0.0 0 CFG=2
M  V30 11 C 3.4641 1.4999 0.0 0
M  V30 12 C 3.4641 -0.5 0.0 0
M  V30 13 C 1.732 -0.5 0.0 0
M  V30 14 C 4.3301 1.0 0.0 0
M  V30 15 C 4.3301 0.0 0.0 0
M  V30 16 N 1.732 -1.5 0.0 0
M  V30 17 C 2.598 -2.0 0.0 0
M  V30 18 C 0.866 -2.0 0.0 0
M  V30 END ATOM
M  V30 BEGIN BOND
M  V30 1 1 1 2
M  V30 2 2 2 3
M  V30 3 1 2 4
M  V30 4 1 3 5
M  V30 5 2 4 6
M  V30 6 2 5 7
M  V30 7 1 8 5
M  V30 8 1 8 9 CFG=1
M  V30 9 1 10 8
M  V30 10 1 8 11
M  V30 11 1 10 12
M  V30 12 1 10 13 CFG=3
M  V30 13 1 11 14
M  V30 14 1 12 15
M  V30 15 1 13 16
M  V30 16 1 16 17
M  V30 17 1 16 18
M  V30 18 1 6 7
M  V30 19 1 14 15
M  V30 END BOND
M  V30 BEGIN COLLECTION
M  V30 MDLV30/STERAC1 ATOMS=(2 8 10)
M  V30 END COLLECTION
M  V30 END CTAB
M  END
>  <Molecule Name>
_c001

>  <status>
-

>  <cas>
330999-27-4

>  <name>
M TRAMADOL

>  <ID>
1676

>  <Smiles>
CN(C)C[C@@H](CCCC1)[C@@]1(c1cccc(O)c1)O

$$$$
_c001
Actelion Java MolfileCreator 2.0

  0  0  0  0  0  0              0 V3000
M  V30 BEGIN CTAB
M  V30 COUNTS 19 20 0 0 0
M  V30 BEGIN ATOM
M  V30 1 O -0.866 1.0 0.0 0
M  V30 2 C 0.0 1.5 0.0 0
M  V30 3 C -0.866 0.0 0.0 0
M  V30 4 C 0.866 1.0 0.0 0
M  V30 5 C 0.0 2.5 0.0 0
M  V30 6 C 1.732 1.5 0.0 0
M  V30 7 C 0.866 3.0 0.0 0
M  V30 8 C 1.732 2.5 0.0 0
M  V30 9 C 2.598 1.0 0.0 0 CFG=1
M  V30 10 O 1.732 0.5 0.0 0
M  V30 11 C 2.598 0.0 0.0 0 CFG=1
M  V30 12 C 3.4641 1.4999 0.0 0
M  V30 13 C 3.4641 -0.5 0.0 0
M  V30 14 C 1.732 -0.5 0.0 0
M  V30 15 C 4.3301 1.0 0.0 0
M  V30 16 C 4.3301 0.0 0.0 0
M  V30 17 N 1.732 -1.5 0.0 0
M  V30 18 C 2.598 -2.0 0.0 0
M  V30 19 C 0.866 -2.0 0.0 0
M  V30 END ATOM
M  V30 BEGIN BOND
M  V30 1 1 1 2
M  V30 2 1 1 3
M  V30 3 2 2 4
M  V30 4 1 2 5
M  V30 5 1 4 6
M  V30 6 2 5 7
M  V30 7 2 6 8
M  V30 8 1 9 6
M  V30 9 1 9 10 CFG=1
M  V30 10 1 11 9
M  V30 11 1 9 12
M  V30 12 1 11 13
M  V30 13 1 11 14 CFG=1
M  V30 14 1 12 15
M  V30 15 1 13 16
M  V30 16 1 14 17
M  V30 17 1 17 18
M  V30 18 1 17 19
M  V30 19 1 7 8
M  V30 20 1 15 16
M  V30 END BOND
M  V30 BEGIN COLLECTION
M  V30 MDLV30/STERAC1 ATOMS=(2 9 11)
M  V30 END COLLECTION
M  V30 END CTAB
M  END
>  <Molecule Name>
_c001

>  <status>
-

>  <cas>
123134-25-8

>  <name>
TRAMADOL

>  <ID>
1677

>  <Smiles>
CN(C)C[C@H](CCCC1)[C@@]1(c1cccc(OC)c1)O

$$$$
_c001
Actelion Java MolfileCreator 2.0

  0  0  0  0  0  0              0 V3000
M  V30 BEGIN CTAB
M  V30 COUNTS 18 19 0 0 0
M  V30 BEGIN ATOM
M  V30 1 O -0.866 1.0 0.0 0
M  V30 2 C 0.0 1.5 0.0 0
M  V30 3 C 0.866 1.0 0.0 0
M  V30 4 C 0.0 2.5 0.0 0
M  V30 5 C 1.732 1.5 0.0 0
M  V30 6 C 0.866 3.0 0.0 0
M  V30 7 C 1.732 2.5 0.0 0
M  V30 8 C 2.598 1.0 0.0 0 CFG=1
M  V30 9 O 1.732 0.5 0.0 0
M  V30 10 C 2.598 0.0 0.0 0 CFG=1
M  V30 11 C 3.4641 1.4999 0.0 0
M  V30 12 C 3.4641 -0.5 0.0 0
M  V30 13 C 1.732 -0.5 0.0 0
M  V30 14 C 4.3301 1.0 0.0 0
M  V30 15 C 4.3301 0.0 0.0 0
M  V30 16 N 1.732 -1.5 0.0 0
M  V30 17 C 2.598 -2.0 0.0 0
M  V30 18 C 0.866 -2.0 0.0 0
M  V30 END ATOM
M  V30 BEGIN BOND
M  V30 1 1 1 2
M  V30 2 2 2 3
M  V30 3 1 2 4
M  V30 4 1 3 5
M  V30 5 2 4 6
M  V30 6 2 5 7
M  V30 7 1 8 5
M  V30 8 1 8 9 CFG=1
M  V30 9 1 10 8
M  V30 10 1 8 11
M  V30 11 1 10 12
M  V30 12 1 10 13 CFG=1
M  V30 13 1 11 14
M  V30 14 1 12 15
M  V30 15 1 13 16
M  V30 16 1 16 17
M  V30 17 1 16 18
M  V30 18 1 6 7
M  V30 19 1 14 15
M  V30 END BOND
M  V30 BEGIN COLLECTION
M  V30 MDLV30/STERAC1 ATOMS=(2 8 10)
M  V30 END COLLECTION
M  V30 END CTAB
M  END
>  <Molecule Name>
_c001

>  <status>
-

>  <cas>
144830-15-9

>  <name>
M TRAMADOL

>  <ID>
1678

>  <Smiles>
CN(C)C[C@H](CCCC1)[C@@]1(c1cccc(O)c1)O

$$$$
_c001
Actelion Java MolfileCreator 2.0

  0  0  0  0  0  0              0 V3000
M  V30 BEGIN CTAB
M  V30 COUNTS 19 20 0 0 0
M  V30 BEGIN ATOM
M  V30 1 O -0.866 1.0 0.0 0
M  V30 2 C 0.0 1.5 0.0 0
M  V30 3 C -0.866 0.0 0.0 0
M  V30 4 C 0.866 1.0 0.0 0
M  V30 5 C 0.0 2.5 0.0 0
M  V30 6 C 1.732 1.5 0.0 0
M  V30 7 C 0.866 3.0 0.0 0
M  V30 8 C 1.732 2.5 0.0 0
M  V30 9 C 2.598 1.0 0.0 0 CFG=1
M  V30 10 O 1.732 0.5 0.0 0
M  V30 11 C 2.598 0.0 0.0 0 CFG=1
M  V30 12 C 3.4641 1.4999 0.0 0
M  V30 13 C 3.4641 -0.5 0.0 0
M  V30 14 C 1.732 -0.5 0.0 0
M  V30 15 C 4.3301 1.0 0.0 0
M  V30 16 C 4.3301 0.0 0.0 0
M  V30 17 N 1.732 -1.5 0.0 0
M  V30 18 C 2.598 -2.0 0.0 0
M  V30 19 C 0.866 -2.0 0.0 0
M  V30 END ATOM
M  V30 BEGIN BOND
M  V30 1 1 1 2
M  V30 2 1 1 3
M  V30 3 2 2 4
M  V30 4 1 2 5
M  V30 5 1 4 6
M  V30 6 2 5 7
M  V30 7 2 6 8
M  V30 8 1 9 6
M  V30 9 1 9 10 CFG=1
M  V30 10 1 11 9
M  V30 11 1 9 12
M  V30 12 1 11 13
M  V30 13 1 11 14 CFG=1
M  V30 14 1 12 15
M  V30 15 1 13 16
M  V30 16 1 14 17
M  V30 17 1 17 18
M  V30 18 1 17 19
M  V30 19 1 7 8
M  V30 20 1 15 16
M  V30 END BOND
M  V30 BEGIN COLLECTION
M  V30 MDLV30/STERAC1 ATOMS=(2 9 11)
M  V30 END COLLECTION
M  V30 END CTAB
M  END
>  <Molecule Name>
_c001

>  <status>
-

>  <cas>
27203-92-5

>  <name>
TRAMADOL

>  <ID>
1679

>  <Smiles>
CN(C)C[C@H](CCCC1)[C@@]1(c1cccc(OC)c1)O

$$$$
_c001
Actelion Java MolfileCreator 2.0

  0  0  0  0  0  0              0 V3000
M  V30 BEGIN CTAB
M  V30 COUNTS 18 19 0 0 0
M  V30 BEGIN ATOM
M  V30 1 O -0.866 1.0 0.0 0
M  V30 2 C 0.0 1.5 0.0 0
M  V30 3 C 0.866 1.0 0.0 0
M  V30 4 C 0.0 2.5 0.0 0
M  V30 5 C 1.732 1.5 0.0 0
M  V30 6 C 0.866 3.0 0.0 0
M  V30 7 C 1.732 2.5 0.0 0
M  V30 8 C 2.598 1.0 0.0 0 CFG=1
M  V30 9 O 1.732 0.5 0.0 0
M  V30 10 C 2.598 0.0 0.0 0 CFG=1
M  V30 11 C 3.4641 1.4999 0.0 0
M  V30 12 C 3.4641 -0.5 0.0 0
M  V30 13 C 1.732 -0.5 0.0 0
M  V30 14 C 4.3301 1.0 0.0 0
M  V30 15 C 4.3301 0.0 0.0 0
M  V30 16 N 1.732 -1.5 0.0 0
M  V30 17 C 2.598 -2.0 0.0 0
M  V30 18 C 0.866 -2.0 0.0 0
M  V30 END ATOM
M  V30 BEGIN BOND
M  V30 1 1 1 2
M  V30 2 2 2 3
M  V30 3 1 2 4
M  V30 4 1 3 5
M  V30 5 2 4 6
M  V30 6 2 5 7
M  V30 7 1 8 5
M  V30 8 1 8 9 CFG=1
M  V30 9 1 10 8
M  V30 10 1 8 11
M  V30 11 1 10 12
M  V30 12 1 10 13 CFG=1
M  V30 13 1 11 14
M  V30 14 1 12 15
M  V30 15 1 13 16
M  V30 16 1 16 17
M  V30 17 1 16 18
M  V30 18 1 6 7
M  V30 19 1 14 15
M  V30 END BOND
M  V30 BEGIN COLLECTION
M  V30 MDLV30/STERAC1 ATOMS=(2 8 10)
M  V30 END COLLECTION
M  V30 END CTAB
M  END
>  <Molecule Name>
_c001

>  <status>
-

>  <cas>
144830-14-8

>  <name>
M TRAMADOL

>  <ID>
1680

>  <Smiles>
CN(C)C[C@H](CCCC1)[C@@]1(c1cccc(O)c1)O

$$$$
_c001
Actelion Java MolfileCreator 2.0

  0  0  0  0  0  0              0 V3000
M  V30 BEGIN CTAB
M  V30 COUNTS 29 31 0 0 0
M  V30 BEGIN ATOM
M  V30 1 S 6.6448 2.0684 0.0 0
M  V30 2 C 7.1448 1.2024 0.0 0
M  V30 3 C 7.3139 2.8116 0.0 0
M  V30 4 S 8.123 1.4103 0.0 0
M  V30 5 C 6.1667 0.9945 0.0 0
M  V30 6 C 7.6448 0.3364 0.0 0
M  V30 7 C 8.2275 2.4048 0.0 0
M  V30 8 N 6.0621 0.0 0.0 0
M  V30 9 C 6.9757 -0.4067 0.0 0 CFG=2
M  V30 10 C 5.1961 -0.5 0.0 0
M  V30 11 C 7.1836 -1.3848 0.0 0
M  V30 12 O 5.1961 -1.4999 0.0 0
M  V30 13 C 4.3301 0.0 0.0 0 CFG=1
M  V30 14 O 6.4404 -2.054 0.0 0
M  V30 15 O 8.1346 -1.6939 0.0 0 CHG=-1
M  V30 16 N 3.4641 -0.5 0.0 0
M  V30 17 C 4.3301 1.0 0.0 0
M  V30 18 C 2.598 0.0 0.0 0 CFG=2
M  V30 19 C 2.598 1.0 0.0 0
M  V30 20 C 1.732 -0.5 0.0 0
M  V30 21 O 3.4641 1.4999 0.0 0
M  V30 22 O 1.732 1.5 0.0 0 CHG=-1
M  V30 23 C 0.866 0.0 0.0 0
M  V30 24 C 0.0 -0.5 0.0 0
M  V30 25 C -0.866 0.0 0.0 0
M  V30 26 C 0.0 -1.4999 0.0 0
M  V30 27 C -1.732 -0.4999 0.0 0
M  V30 28 C -0.866 -1.9999 0.0 0
M  V30 29 C -1.732 -1.4999 0.0 0
M  V30 END ATOM
M  V30 BEGIN BOND
M  V30 1 1 1 2
M  V30 2 1 1 3
M  V30 3 1 2 4
M  V30 4 1 2 5
M  V30 5 1 2 6
M  V30 6 1 3 7
M  V30 7 1 5 8
M  V30 8 1 9 6
M  V30 9 1 8 10
M  V30 10 1 9 11 CFG=1
M  V30 11 2 10 12
M  V30 12 1 13 10
M  V30 13 2 11 14
M  V30 14 1 11 15
M  V30 15 1 13 16 CFG=1
M  V30 16 1 13 17
M  V30 17 1 18 16 CFG=1
M  V30 18 1 18 19
M  V30 19 1 18 20
M  V30 20 2 19 21
M  V30 21 1 19 22
M  V30 22 1 20 23
M  V30 23 1 23 24
M  V30 24 2 24 25
M  V30 25 1 24 26
M  V30 26 1 25 27
M  V30 27 2 26 28
M  V30 28 2 27 29
M  V30 29 1 4 7
M  V30 30 1 8 9
M  V30 31 1 28 29
M  V30 END BOND
M  V30 BEGIN COLLECTION
M  V30 MDLV30/STERAC1 ATOMS=(3 9 13 18)
M  V30 END COLLECTION
M  V30 END CTAB
M  END
>  <Molecule Name>
_c001

>  <status>
-

>  <cas>
83602-05-5

>  <name>
SPIRAPRILAT

>  <ID>
1681

>  <Smiles>
C[C@@H](C(N(CC1(C2)SCCS1)[C@@H]2C([O-])=O)=O)N[C@@H](CCc1ccccc1)C([O-])=O

$$$$
_c001
Actelion Java MolfileCreator 2.0

  0  0  0  0  0  0              0 V3000
M  V30 BEGIN CTAB
M  V30 COUNTS 31 33 0 0 0
M  V30 BEGIN ATOM
M  V30 1 Cl 16.592 2.3325 0.0 0
M  V30 2 C 15.3784 3.2142 0.0 0
M  V30 3 N 15.5352 4.706 0.0 0
M  V30 4 N 14.0081 2.6041 0.0 0
M  V30 5 C 14.3217 5.5877 0.0 0
M  V30 6 C 12.7946 3.4858 0.0 0
M  V30 7 N 14.4785 7.0795 0.0 0
M  V30 8 C 12.9514 4.9776 0.0 0
M  V30 9 N 11.3274 3.1739 0.0 0
M  V30 10 N 11.5811 5.5877 0.0 0
M  V30 11 C 10.5774 4.473 0.0 0
M  V30 12 C 10.7173 1.8036 0.0 0 CFG=1
M  V30 13 O 9.25 1.4917 0.0 0
M  V30 14 C 11.4673 0.5046 0.0 0
M  V30 15 C 9.0932 0.0 0.0 0 CFG=2
M  V30 16 C 10.4636 -0.6101 0.0 0 CFG=2
M  V30 17 C 7.7942 -0.75 0.0 0
M  V30 18 O 10.7754 -2.0773 0.0 0
M  V30 19 O 6.4952 0.0 0.0 0
M  V30 20 P 5.1961 -0.75 0.0 0 CFG=2
M  V30 21 O 4.4461 -2.049 0.0 0
M  V30 22 O 3.8971 0.0 0.0 0
M  V30 23 O 5.9461 -2.049 0.0 0 CHG=-1
M  V30 24 P 3.8971 1.5 0.0 0 CFG=1
M  V30 25 O 4.647 2.799 0.0 0
M  V30 26 O 2.598 2.25 0.0 0
M  V30 27 O 5.397 1.4999 0.0 0 CHG=-1
M  V30 28 P 1.299 1.5 0.0 0
M  V30 29 O 0.549 2.799 0.0 0
M  V30 30 O 0.0 0.75 0.0 0 CHG=-1
M  V30 31 O 2.049 0.2009 0.0 0 CHG=-1
M  V30 END ATOM
M  V30 BEGIN BOND
M  V30 1 1 1 2
M  V30 2 2 2 3
M  V30 3 1 2 4
M  V30 4 1 3 5
M  V30 5 2 4 6
M  V30 6 1 5 7
M  V30 7 2 5 8
M  V30 8 1 6 9
M  V30 9 1 8 10
M  V30 10 1 9 11
M  V30 11 1 12 9 CFG=3
M  V30 12 1 12 13
M  V30 13 1 12 14
M  V30 14 1 15 13
M  V30 15 1 16 14
M  V30 16 1 15 17 CFG=3
M  V30 17 1 16 18 CFG=1
M  V30 18 1 17 19
M  V30 19 1 20 19
M  V30 20 2 20 21
M  V30 21 1 20 22
M  V30 22 1 20 23 CFG=1
M  V30 23 1 24 22
M  V30 24 2 24 25
M  V30 25 1 24 26
M  V30 26 1 24 27 CFG=1
M  V30 27 1 26 28
M  V30 28 2 28 29
M  V30 29 1 28 30
M  V30 30 1 28 31
M  V30 31 1 6 8
M  V30 32 2 10 11
M  V30 33 1 15 16
M  V30 END BOND
M  V30 BEGIN COLLECTION
M  V30 MDLV30/STERAC1 ATOMS=(5 12 15 16 20 24)
M  V30 END COLLECTION
M  V30 END CTAB
M  END
>  <Molecule Name>
_c001

>  <status>
-

>  <cas>
106867-30-5

>  <name>
M CLADRIBINE

>  <ID>
1682

>  <Smiles>
Nc1c2ncn([C@H](C3)O[C@@H](CO[P@@]([O-])(O[P@]([O-])(OP([O-])([O-])=O)=O)=O)[C@@H]3O)c2nc(Cl)n1

$$$$
_c001
Actelion Java MolfileCreator 2.0

  0  0  0  0  0  0              0 V3000
M  V30 BEGIN CTAB
M  V30 COUNTS 8 7 0 0 0
M  V30 BEGIN ATOM
M  V30 1 S 6.0621 0.0 0.0 0
M  V30 2 C 5.1961 -0.5 0.0 0
M  V30 3 C 4.3301 0.0 0.0 0
M  V30 4 N 3.4641 -0.5 0.0 0
M  V30 5 C 2.598 0.0 0.0 0
M  V30 6 C 1.732 -0.5 0.0 0
M  V30 7 C 0.866 0.0 0.0 0
M  V30 8 N 0.0 -0.5 0.0 0
M  V30 END ATOM
M  V30 BEGIN BOND
M  V30 1 1 1 2
M  V30 2 1 2 3
M  V30 3 1 3 4
M  V30 4 1 4 5
M  V30 5 1 5 6
M  V30 6 1 6 7
M  V30 7 1 7 8
M  V30 END BOND
M  V30 END CTAB
M  END
>  <Molecule Name>
_c001

>  <status>
-

>  <cas>
31098-42-7

>  <name>
M AMIFOSTINE

>  <ID>
1683

>  <Smiles>
NCCCNCCS

$$$$
_c001
Actelion Java MolfileCreator 2.0

  0  0  0  0  0  0              0 V3000
M  V30 BEGIN CTAB
M  V30 COUNTS 27 28 0 0 0
M  V30 BEGIN ATOM
M  V30 1 P 5.1961 -2.25 0.0 0 CFG=2
M  V30 2 O 4.4461 -3.549 0.0 0
M  V30 3 O 5.1961 -0.75 0.0 0
M  V30 4 O 6.4952 -3.0 0.0 0
M  V30 5 O 3.6961 -2.2499 0.0 0 CHG=-1
M  V30 6 P 3.8971 0.0 0.0 0 CFG=1
M  V30 7 P 7.7942 -2.25 0.0 0
M  V30 8 O 4.6471 1.299 0.0 0
M  V30 9 O 2.598 -0.75 0.0 0
M  V30 10 O 3.1471 1.299 0.0 0 CHG=-1
M  V30 11 O 8.5442 -3.549 0.0 0
M  V30 12 O 9.0932 -1.5 0.0 0 CHG=-1
M  V30 13 O 7.0442 -0.9509 0.0 0 CHG=-1
M  V30 14 C 1.299 0.0 0.0 0
M  V30 15 C 0.0 -0.75 0.0 0 CFG=1
M  V30 16 O -1.3703 -0.1398 0.0 0
M  V30 17 C -0.1567 -2.2417 0.0 0
M  V30 18 C -2.374 -1.2546 0.0 0 CFG=2
M  V30 19 C -1.624 -2.5536 0.0 0
M  V30 20 N -3.8658 -1.0978 0.0 0
M  V30 21 C -4.4759 0.2724 0.0 0
M  V30 22 C -4.7474 -2.3113 0.0 0
M  V30 23 O -3.5942 1.486 0.0 0
M  V30 24 N -5.9677 0.4292 0.0 0
M  V30 25 C -6.2392 -2.1545 0.0 0
M  V30 26 C -6.8493 -0.7842 0.0 0
M  V30 27 N -8.3411 -0.6274 0.0 0
M  V30 END ATOM
M  V30 BEGIN BOND
M  V30 1 2 1 2
M  V30 2 1 1 3
M  V30 3 1 1 4
M  V30 4 1 1 5 CFG=1
M  V30 5 1 6 3
M  V30 6 1 4 7
M  V30 7 2 6 8
M  V30 8 1 6 9
M  V30 9 1 6 10 CFG=1
M  V30 10 2 7 11
M  V30 11 1 7 12
M  V30 12 1 7 13
M  V30 13 1 9 14
M  V30 14 1 15 14 CFG=3
M  V30 15 1 15 16
M  V30 16 1 15 17
M  V30 17 1 18 16
M  V30 18 1 17 19
M  V30 19 1 18 20 CFG=3
M  V30 20 1 20 21
M  V30 21 1 20 22
M  V30 22 2 21 23
M  V30 23 1 21 24
M  V30 24 2 22 25
M  V30 25 2 24 26
M  V30 26 1 26 27
M  V30 27 1 18 19
M  V30 28 1 25 26
M  V30 END BOND
M  V30 BEGIN COLLECTION
M  V30 MDLV30/STERAC1 ATOMS=(4 1 6 15 18)
M  V30 END COLLECTION
M  V30 END CTAB
M  END
>  <Molecule Name>
_c001

>  <status>
-

>  <cas>
66004-77-1

>  <name>
M ZALCITABINE

>  <ID>
1684

>  <Smiles>
NC(C=CN1[C@@H]2O[C@H](CO[P@@]([O-])(O[P@]([O-])(OP([O-])([O-])=O)=O)=O)CC2)=NC1=O

$$$$
_c001
Actelion Java MolfileCreator 2.0

  0  0  0  0  0  0              0 V3000
M  V30 BEGIN CTAB
M  V30 COUNTS 24 25 0 0 0
M  V30 BEGIN ATOM
M  V30 1 O 12.202 -2.5408 0.0 0
M  V30 2 C 10.7754 -2.0773 0.0 0
M  V30 3 O 9.6607 -3.081 0.0 0 CHG=-1
M  V30 4 C 10.4635 -0.6101 0.0 0 CFG=1
M  V30 5 N 9.0932 0.0 0.0 0
M  V30 6 C 11.4672 0.5046 0.0 0
M  V30 7 C 7.7942 -0.75 0.0 0
M  V30 8 C 9.25 1.4917 0.0 0 CFG=2
M  V30 9 C 10.7172 1.8036 0.0 0 CFG=1
M  V30 10 O 7.7942 -2.25 0.0 0
M  V30 11 C 6.4951 0.0 0.0 0 CFG=1
M  V30 12 C 8.2463 2.6065 0.0 0
M  V30 13 C 11.1808 3.2302 0.0 0
M  V30 14 N 5.1961 -0.75 0.0 0
M  V30 15 C 6.4951 1.5 0.0 0
M  V30 16 C 8.7098 4.033 0.0 0
M  V30 17 C 10.1771 4.3449 0.0 0
M  V30 18 C 3.8971 0.0 0.0 0 CFG=2
M  V30 19 C 3.8971 1.5 0.0 0
M  V30 20 C 2.598 -0.75 0.0 0
M  V30 21 O 5.1961 2.25 0.0 0
M  V30 22 O 2.598 2.25 0.0 0 CHG=-1
M  V30 23 C 1.299 0.0 0.0 0
M  V30 24 C 0.0 -0.75 0.0 0
M  V30 END ATOM
M  V30 BEGIN BOND
M  V30 1 2 1 2
M  V30 2 1 2 3
M  V30 3 1 4 2 CFG=1
M  V30 4 1 4 5
M  V30 5 1 4 6
M  V30 6 1 5 7
M  V30 7 1 8 5 CFG=1
M  V30 8 1 9 6 CFG=1
M  V30 9 2 7 10
M  V30 10 1 11 7
M  V30 11 1 8 12
M  V30 12 1 9 13
M  V30 13 1 11 14 CFG=1
M  V30 14 1 11 15
M  V30 15 1 12 16
M  V30 16 1 13 17
M  V30 17 1 18 14 CFG=1
M  V30 18 1 18 19
M  V30 19 1 18 20
M  V30 20 2 19 21
M  V30 21 1 19 22
M  V30 22 1 20 23
M  V30 23 1 23 24
M  V30 24 1 8 9
M  V30 25 1 16 17
M  V30 END BOND
M  V30 BEGIN COLLECTION
M  V30 MDLV30/STERAC1 ATOMS=(5 4 8 9 11 18)
M  V30 END COLLECTION
M  V30 END CTAB
M  END
>  <Molecule Name>
_c001

>  <status>
-

>  <cas>
95153-31-4

>  <name>
PERINDOPRILAT

>  <ID>
1685

>  <Smiles>
CCC[C@@H](C([O-])=O)N[C@@H](C)C(N([C@@H](C1)C([O-])=O)[C@@H]2[C@H]1CCCC2)=O

$$$$
_c001
Actelion Java MolfileCreator 2.0

  0  0  0  0  0  0              0 V3000
M  V30 BEGIN CTAB
M  V30 COUNTS 29 31 0 0 0
M  V30 BEGIN ATOM
M  V30 1 P 5.1961 -2.25 0.0 0 CFG=2
M  V30 2 O 4.4461 -3.549 0.0 0
M  V30 3 O 5.1961 -0.75 0.0 0
M  V30 4 O 6.4952 -3.0 0.0 0
M  V30 5 O 3.6961 -2.2499 0.0 0 CHG=-1
M  V30 6 P 3.8971 0.0 0.0 0 CFG=2
M  V30 7 P 7.7942 -2.25 0.0 0
M  V30 8 O 4.6471 1.299 0.0 0
M  V30 9 O 2.598 -0.75 0.0 0
M  V30 10 O 3.1471 1.299 0.0 0 CHG=-1
M  V30 11 O 8.5442 -3.549 0.0 0
M  V30 12 O 9.0932 -1.5 0.0 0 CHG=-1
M  V30 13 O 7.0442 -0.9509 0.0 0 CHG=-1
M  V30 14 C 1.299 0.0 0.0 0
M  V30 15 C 0.0 -0.75 0.0 0 CFG=1
M  V30 16 O -1.3703 -0.1398 0.0 0
M  V30 17 C -0.1567 -2.2417 0.0 0
M  V30 18 C -2.374 -1.2546 0.0 0 CFG=2
M  V30 19 C -1.624 -2.5536 0.0 0
M  V30 20 N -3.8658 -1.0978 0.0 0
M  V30 21 C -4.6158 0.2012 0.0 0
M  V30 22 C -4.8695 -2.2125 0.0 0
M  V30 23 N -4.1522 1.6278 0.0 0
M  V30 24 C -6.083 -0.1106 0.0 0
M  V30 25 N -6.2398 -1.6024 0.0 0
M  V30 26 C -5.1559 2.7425 0.0 0
M  V30 27 C -7.0867 1.004 0.0 0
M  V30 28 N -6.6232 2.4306 0.0 0
M  V30 29 O -8.5539 0.6922 0.0 0
M  V30 END ATOM
M  V30 BEGIN BOND
M  V30 1 2 1 2
M  V30 2 1 1 3
M  V30 3 1 1 4
M  V30 4 1 1 5 CFG=1
M  V30 5 1 6 3
M  V30 6 1 4 7
M  V30 7 2 6 8
M  V30 8 1 6 9
M  V30 9 1 6 10 CFG=3
M  V30 10 2 7 11
M  V30 11 1 7 12
M  V30 12 1 7 13
M  V30 13 1 9 14
M  V30 14 1 15 14 CFG=3
M  V30 15 1 15 16
M  V30 16 1 15 17
M  V30 17 1 18 16
M  V30 18 1 17 19
M  V30 19 1 18 20 CFG=3
M  V30 20 1 20 21
M  V30 21 1 20 22
M  V30 22 1 21 23
M  V30 23 2 21 24
M  V30 24 2 22 25
M  V30 25 1 23 26
M  V30 26 1 24 27
M  V30 27 2 26 28
M  V30 28 2 27 29
M  V30 29 1 18 19
M  V30 30 1 24 25
M  V30 31 1 27 28
M  V30 END BOND
M  V30 BEGIN COLLECTION
M  V30 MDLV30/STERAC1 ATOMS=(4 1 6 15 18)
M  V30 END COLLECTION
M  V30 END CTAB
M  END
>  <Molecule Name>
_c001

>  <status>
-

>  <cas>
122406-02-4

>  <name>
M DIDANOSINE

>  <ID>
1686

>  <Smiles>
[O-]P([O-])(O[P@@]([O-])(O[P@@]([O-])(OC[C@H](CC1)O[C@H]1n1c(NC=NC2=O)c2nc1)=O)=O)=O

$$$$
_c001
Actelion Java MolfileCreator 2.0

  0  0  0  0  0  0              0 V3000
M  V30 BEGIN CTAB
M  V30 COUNTS 32 34 0 0 0
M  V30 BEGIN ATOM
M  V30 1 P 5.1961 -2.25 0.0 0 CFG=2
M  V30 2 O 4.4461 -3.549 0.0 0
M  V30 3 O 5.1961 -0.75 0.0 0
M  V30 4 O 6.4952 -3.0 0.0 0
M  V30 5 O 3.6961 -2.2499 0.0 0 CHG=-1
M  V30 6 P 3.8971 0.0 0.0 0 CFG=2
M  V30 7 P 7.7942 -2.25 0.0 0
M  V30 8 O 4.6471 1.299 0.0 0
M  V30 9 O 2.598 -0.75 0.0 0
M  V30 10 O 3.1471 1.299 0.0 0 CHG=-1
M  V30 11 O 8.5442 -3.549 0.0 0
M  V30 12 O 9.0932 -1.5 0.0 0 CHG=-1
M  V30 13 O 7.0442 -0.9509 0.0 0 CHG=-1
M  V30 14 C 1.299 0.0 0.0 0
M  V30 15 C 0.0 -0.75 0.0 0 CFG=1
M  V30 16 O -1.3703 -0.1398 0.0 0
M  V30 17 C -0.1567 -2.2417 0.0 0 CFG=1
M  V30 18 C -2.374 -1.2546 0.0 0 CFG=2
M  V30 19 O 0.9579 -3.2454 0.0 0
M  V30 20 C -1.624 -2.5536 0.0 0 CFG=1
M  V30 21 N -3.8658 -1.0978 0.0 0
M  V30 22 O -2.2341 -3.9239 0.0 0
M  V30 23 C -4.6158 0.2012 0.0 0
M  V30 24 C -4.8695 -2.2125 0.0 0
M  V30 25 N -4.1522 1.6278 0.0 0
M  V30 26 C -6.083 -0.1106 0.0 0
M  V30 27 N -6.2398 -1.6024 0.0 0
M  V30 28 C -5.1559 2.7425 0.0 0
M  V30 29 C -7.0867 1.004 0.0 0
M  V30 30 F -4.6924 4.1691 0.0 0
M  V30 31 N -6.6232 2.4306 0.0 0
M  V30 32 N -8.5539 0.6922 0.0 0
M  V30 END ATOM
M  V30 BEGIN BOND
M  V30 1 2 1 2
M  V30 2 1 1 3
M  V30 3 1 1 4
M  V30 4 1 1 5 CFG=1
M  V30 5 1 6 3
M  V30 6 1 4 7
M  V30 7 2 6 8
M  V30 8 1 6 9
M  V30 9 1 6 10 CFG=3
M  V30 10 2 7 11
M  V30 11 1 7 12
M  V30 12 1 7 13
M  V30 13 1 9 14
M  V30 14 1 15 14 CFG=3
M  V30 15 1 15 16
M  V30 16 1 17 15
M  V30 17 1 18 16
M  V30 18 1 17 19 CFG=1
M  V30 19 1 20 17
M  V30 20 1 18 21 CFG=3
M  V30 21 1 20 22 CFG=3
M  V30 22 1 21 23
M  V30 23 1 21 24
M  V30 24 2 23 25
M  V30 25 1 23 26
M  V30 26 2 24 27
M  V30 27 1 25 28
M  V30 28 2 26 29
M  V30 29 1 28 30
M  V30 30 2 28 31
M  V30 31 1 29 32
M  V30 32 1 18 20
M  V30 33 1 26 27
M  V30 34 1 29 31
M  V30 END BOND
M  V30 BEGIN COLLECTION
M  V30 MDLV30/STERAC1 ATOMS=(6 1 6 15 17 18 20)
M  V30 END COLLECTION
M  V30 END CTAB
M  END
>  <Molecule Name>
_c001

>  <status>
-

>  <cas>
74832-57-8

>  <name>
M FLUDARABINE

>  <ID>
1687

>  <Smiles>
Nc1c2ncn([C@@H]([C@H]3O)O[C@H](CO[P@]([O-])(O[P@]([O-])(OP([O-])([O-])=O)=O)=O)[C@H]3O)c2nc(F)n1

$$$$
_c001
Actelion Java MolfileCreator 2.0

  0  0  0  0  0  0              0 V3000
M  V30 BEGIN CTAB
M  V30 COUNTS 20 22 0 0 0
M  V30 BEGIN ATOM
M  V30 1 F 8.3675 -6.0777 0.0 0
M  V30 2 C 8.5243 -4.5859 0.0 0
M  V30 3 N 9.8946 -3.9758 0.0 0
M  V30 4 N 7.3107 -3.7043 0.0 0
M  V30 5 C 10.0514 -2.4841 0.0 0
M  V30 6 C 7.4675 -2.2125 0.0 0
M  V30 7 N 11.4217 -1.874 0.0 0
M  V30 8 C 8.8378 -1.6024 0.0 0
M  V30 9 N 6.4638 -1.0978 0.0 0
M  V30 10 N 8.681 -0.1106 0.0 0
M  V30 11 C 7.2138 0.2012 0.0 0
M  V30 12 C 4.972 -1.2546 0.0 0 CFG=1
M  V30 13 O 3.9683 -0.1398 0.0 0
M  V30 14 C 4.222 -2.5536 0.0 0 CFG=2
M  V30 15 C 2.598 -0.75 0.0 0 CFG=2
M  V30 16 O 4.8321 -3.9239 0.0 0
M  V30 17 C 2.7548 -2.2417 0.0 0 CFG=2
M  V30 18 C 1.299 0.0 0.0 0
M  V30 19 O 1.6401 -3.2454 0.0 0
M  V30 20 O 0.0 -0.75 0.0 0
M  V30 END ATOM
M  V30 BEGIN BOND
M  V30 1 1 1 2
M  V30 2 2 2 3
M  V30 3 1 2 4
M  V30 4 1 3 5
M  V30 5 2 4 6
M  V30 6 1 5 7
M  V30 7 2 5 8
M  V30 8 1 6 9
M  V30 9 1 8 10
M  V30 10 1 9 11
M  V30 11 1 12 9 CFG=3
M  V30 12 1 12 13
M  V30 13 1 14 12
M  V30 14 1 15 13
M  V30 15 1 14 16 CFG=3
M  V30 16 1 17 14
M  V30 17 1 15 18 CFG=3
M  V30 18 1 17 19 CFG=1
M  V30 19 1 18 20
M  V30 20 1 6 8
M  V30 21 2 10 11
M  V30 22 1 15 17
M  V30 END BOND
M  V30 BEGIN COLLECTION
M  V30 MDLV30/STERAC1 ATOMS=(4 12 14 15 17)
M  V30 END COLLECTION
M  V30 END CTAB
M  END
>  <Molecule Name>
_c001

>  <status>
-

>  <cas>
21679-14-1

>  <name>
FLUDARABINE

>  <ID>
1688

>  <Smiles>
Nc1c2ncn([C@H]([C@@H]3O)O[C@@H](CO)[C@@H]3O)c2nc(F)n1

$$$$
_c001
Actelion Java MolfileCreator 2.0

  0  0  0  0  0  0              0 V3000
M  V30 BEGIN CTAB
M  V30 COUNTS 19 20 0 0 0
M  V30 BEGIN ATOM
M  V30 1 Cl 3.4641 4.5 0.0 0
M  V30 2 C 4.3301 4.0 0.0 0
M  V30 3 C 4.3301 3.0 0.0 0
M  V30 4 C 5.1961 4.5 0.0 0
M  V30 5 C 5.1961 2.5 0.0 0
M  V30 6 C 3.4641 2.5 0.0 0
M  V30 7 C 6.0621 4.0 0.0 0
M  V30 8 C 6.0621 3.0 0.0 0
M  V30 9 N 3.4641 1.5 0.0 0
M  V30 10 C 2.598 1.0 0.0 0
M  V30 11 C 4.3301 1.0 0.0 0
M  V30 12 C 2.598 0.0 0.0 0
M  V30 13 C 4.3301 0.0 0.0 0
M  V30 14 C 1.732 -0.5 0.0 0
M  V30 15 C 3.4641 -0.4999 0.0 0 CFG=2
M  V30 16 C 1.732 -1.5 0.0 0
M  V30 17 S 3.4641 -1.5 0.0 0
M  V30 18 O 2.598 -2.0 0.0 0
M  V30 19 O 0.866 -2.0 0.0 0 CHG=-1
M  V30 END ATOM
M  V30 BEGIN BOND
M  V30 1 1 1 2
M  V30 2 2 2 3
M  V30 3 1 2 4
M  V30 4 1 3 5
M  V30 5 1 3 6
M  V30 6 2 4 7
M  V30 7 2 5 8
M  V30 8 1 6 9
M  V30 9 1 9 10
M  V30 10 1 9 11
M  V30 11 1 10 12
M  V30 12 1 11 13
M  V30 13 2 12 14
M  V30 14 1 15 12
M  V30 15 1 14 16
M  V30 16 1 15 17 CFG=3
M  V30 17 2 16 18
M  V30 18 1 16 19
M  V30 19 1 7 8
M  V30 20 1 13 15
M  V30 END BOND
M  V30 BEGIN COLLECTION
M  V30 MDLV30/STERAC1 ATOMS=(1 15)
M  V30 END COLLECTION
M  V30 END CTAB
M  END
>  <Molecule Name>
_c001

>  <status>
-

>  <cas>
750643-90-4

>  <name>
M TICLOPIDINE

>  <ID>
1689

>  <Smiles>
[O-]C(/C=C(/CN(Cc(cccc1)c1Cl)CC1)\C1S)=O

$$$$
_c001
Actelion Java MolfileCreator 2.0

  0  0  0  0  0  0              0 V3000
M  V30 BEGIN CTAB
M  V30 COUNTS 19 20 0 0 0
M  V30 BEGIN ATOM
M  V30 1 Cl 3.4641 4.5 0.0 0
M  V30 2 C 4.3301 4.0 0.0 0
M  V30 3 C 4.3301 3.0 0.0 0
M  V30 4 C 5.1961 4.5 0.0 0
M  V30 5 C 5.1961 2.5 0.0 0
M  V30 6 C 3.4641 2.5 0.0 0
M  V30 7 C 6.0621 4.0 0.0 0
M  V30 8 C 6.0621 3.0 0.0 0
M  V30 9 N 3.4641 1.5 0.0 0
M  V30 10 C 2.598 1.0 0.0 0
M  V30 11 C 4.3301 1.0 0.0 0
M  V30 12 C 2.598 0.0 0.0 0
M  V30 13 C 4.3301 0.0 0.0 0
M  V30 14 C 1.732 -0.5 0.0 0
M  V30 15 C 3.4641 -0.4999 0.0 0 CFG=2
M  V30 16 C 1.732 -1.5 0.0 0
M  V30 17 S 3.4641 -1.5 0.0 0
M  V30 18 O 2.598 -2.0 0.0 0
M  V30 19 O 0.866 -2.0 0.0 0 CHG=-1
M  V30 END ATOM
M  V30 BEGIN BOND
M  V30 1 1 1 2
M  V30 2 2 2 3
M  V30 3 1 2 4
M  V30 4 1 3 5
M  V30 5 1 3 6
M  V30 6 2 4 7
M  V30 7 2 5 8
M  V30 8 1 6 9
M  V30 9 1 9 10
M  V30 10 1 9 11
M  V30 11 1 10 12
M  V30 12 1 11 13
M  V30 13 2 12 14
M  V30 14 1 15 12
M  V30 15 1 14 16
M  V30 16 1 15 17 CFG=3
M  V30 17 2 16 18
M  V30 18 1 16 19
M  V30 19 1 7 8
M  V30 20 1 13 15
M  V30 END BOND
M  V30 BEGIN COLLECTION
M  V30 MDLV30/STERAC1 ATOMS=(1 15)
M  V30 END COLLECTION
M  V30 END CTAB
M  END
>  <Molecule Name>
_c001

>  <status>
-

>  <cas>
750643-90-4

>  <name>
M TICLOPIDINE

>  <ID>
1690

>  <Smiles>
[O-]C(/C=C(/CN(Cc(cccc1)c1Cl)CC1)\C1S)=O

$$$$
_c001
Actelion Java MolfileCreator 2.0

  0  0  0  0  0  0              0 V3000
M  V30 BEGIN CTAB
M  V30 COUNTS 29 32 0 0 0
M  V30 BEGIN ATOM
M  V30 1 Cl 3.9027 0.0 0.0 0
M  V30 2 C 2.6018 -0.751 0.0 0
M  V30 3 C 1.3009 0.0 0.0 0
M  V30 4 O 1.3009 1.5021 0.0 0
M  V30 5 C 0.0 -0.751 0.0 0 CFG=2
M  V30 6 O 1.2598 -1.5692 0.0 0
M  V30 7 C -1.3722 -0.14 0.0 0 CFG=2
M  V30 8 C -0.157 -2.245 0.0 0 CFG=2
M  V30 9 C -2.3774 -1.2564 0.0 0 CFG=1
M  V30 10 C -1.8364 1.2885 0.0 0
M  V30 11 C -0.2559 0.865 0.0 0
M  V30 12 C -1.6263 -2.5573 0.0 0
M  V30 13 C 0.9593 -3.2501 0.0 0
M  V30 14 C -3.8467 -0.9441 0.0 0 CFG=1
M  V30 15 C -3.3058 1.6008 0.0 0 CFG=1
M  V30 16 C -4.3109 0.4845 0.0 0 CFG=1
M  V30 17 C -4.8519 -2.0604 0.0 0
M  V30 18 O -3.77 3.0295 0.0 0
M  V30 19 F -4.6025 1.8207 0.0 0
M  V30 20 C -5.7803 0.7968 0.0 0 CFG=2
M  V30 21 C -6.3212 -1.7481 0.0 0 CFG=1
M  V30 22 C -6.7854 -0.3194 0.0 0
M  V30 23 C -6.2445 2.2255 0.0 0
M  V30 24 C -5.0407 2.1787 0.0 0
M  V30 25 F -7.3264 -2.8644 0.0 0
M  V30 26 C -8.2548 -0.0071 0.0 0
M  V30 27 C -7.7138 2.5378 0.0 0
M  V30 28 C -8.7189 1.4214 0.0 0
M  V30 29 O -10.1883 1.7338 0.0 0
M  V30 END ATOM
M  V30 BEGIN BOND
M  V30 1 1 1 2
M  V30 2 1 2 3
M  V30 3 2 3 4
M  V30 4 1 5 3
M  V30 5 1 5 6 CFG=3
M  V30 6 1 7 5
M  V30 7 1 8 5
M  V30 8 1 9 7
M  V30 9 1 7 10
M  V30 10 1 7 11 CFG=1
M  V30 11 1 8 12
M  V30 12 1 8 13 CFG=1
M  V30 13 1 14 9
M  V30 14 1 15 10
M  V30 15 1 16 14
M  V30 16 1 14 17 CFG=3
M  V30 17 1 15 18 CFG=1
M  V30 18 1 16 19 CFG=3
M  V30 19 1 20 16
M  V30 20 1 21 17
M  V30 21 1 20 22
M  V30 22 1 20 23
M  V30 23 1 20 24 CFG=1
M  V30 24 1 21 25 CFG=3
M  V30 25 2 22 26
M  V30 26 2 23 27
M  V30 27 1 26 28
M  V30 28 2 28 29
M  V30 29 1 9 12 CFG=1
M  V30 30 1 15 16
M  V30 31 1 21 22
M  V30 32 1 27 28
M  V30 END BOND
M  V30 BEGIN COLLECTION
M  V30 MDLV30/STERAC1 ATOMS=(9 5 7 8 9 14 15 16 20 21)
M  V30 END COLLECTION
M  V30 END CTAB
M  END
>  <Molecule Name>
_c001

>  <status>
-

>  <cas>
98651-66-2

>  <name>
HALOBETASOL

>  <ID>
1691

>  <Smiles>
C[C@@H](C[C@@H]([C@H](C[C@@H](C([C@]1(C)C=C2)=CC2=O)F)[C@@]11F)[C@]2(C)C[C@@H]1O)[C@@]2(C(CCl)=O)O

$$$$
_c001
Actelion Java MolfileCreator 2.0

  0  0  0  0  0  0              0 V3000
M  V30 BEGIN CTAB
M  V30 COUNTS 30 32 0 0 0
M  V30 BEGIN ATOM
M  V30 1 P 6.4951 0.0 0.0 0 CFG=2
M  V30 2 O 7.2452 1.299 0.0 0
M  V30 3 O 5.7451 1.299 0.0 0
M  V30 4 C 7.7942 -0.75 0.0 0
M  V30 5 C 5.1961 -0.75 0.0 0
M  V30 6 C 9.0932 0.0 0.0 0
M  V30 7 C 3.8971 0.0 0.0 0
M  V30 8 O 10.3923 -0.75 0.0 0
M  V30 9 N 9.0932 1.5 0.0 0
M  V30 10 C 2.598 -0.75 0.0 0
M  V30 11 C 10.3068 2.3816 0.0 0 CFG=1
M  V30 12 C 7.8797 2.3816 0.0 0
M  V30 13 C 1.299 0.0 0.0 0
M  V30 14 C 11.7333 1.9181 0.0 0
M  V30 15 C 9.8432 3.8082 0.0 0
M  V30 16 C 8.3432 3.8082 0.0 0 CFG=2
M  V30 17 C 0.0 -0.75 0.0 0
M  V30 18 O 12.0452 0.4509 0.0 0
M  V30 19 O 12.8481 2.9218 0.0 0 CHG=-1
M  V30 20 C 7.4615 5.0217 0.0 0
M  V30 21 C -1.299 0.0 0.0 0
M  V30 22 C 0.0 -2.25 0.0 0
M  V30 23 C 8.0717 6.3921 0.0 0
M  V30 24 C 5.9698 4.865 0.0 0
M  V30 25 C -2.598 -0.75 0.0 0
M  V30 26 C -1.299 -3.0 0.0 0
M  V30 27 C 7.19 7.6056 0.0 0
M  V30 28 C 5.0881 6.0785 0.0 0
M  V30 29 C -2.598 -2.25 0.0 0
M  V30 30 C 5.6982 7.4488 0.0 0
M  V30 END ATOM
M  V30 BEGIN BOND
M  V30 1 2 1 2
M  V30 2 1 1 3 CFG=1
M  V30 3 1 1 4
M  V30 4 1 1 5
M  V30 5 1 4 6
M  V30 6 1 5 7
M  V30 7 2 6 8
M  V30 8 1 6 9
M  V30 9 1 7 10
M  V30 10 1 11 9
M  V30 11 1 9 12
M  V30 12 1 10 13
M  V30 13 1 11 14 CFG=3
M  V30 14 1 11 15
M  V30 15 1 16 12
M  V30 16 1 13 17
M  V30 17 2 14 18
M  V30 18 1 14 19
M  V30 19 1 16 20 CFG=1
M  V30 20 2 17 21
M  V30 21 1 17 22
M  V30 22 1 20 23
M  V30 23 1 20 24
M  V30 24 1 21 25
M  V30 25 2 22 26
M  V30 26 1 23 27
M  V30 27 1 24 28
M  V30 28 2 25 29
M  V30 29 1 27 30
M  V30 30 1 15 16
M  V30 31 1 26 29
M  V30 32 1 28 30
M  V30 END BOND
M  V30 BEGIN COLLECTION
M  V30 MDLV30/STERAC1 ATOMS=(3 1 11 16)
M  V30 END COLLECTION
M  V30 END CTAB
M  END
>  <Molecule Name>
_c001

>  <status>
-

>  <cas>
95399-71-6

>  <name>
FOSINOPRILAT

>  <ID>
1692

>  <Smiles>
[O-]C([C@@H](C[C@@H](C1)C2CCCCC2)N1C(C[P@@](CCCCc1ccccc1)(O)=O)=O)=O

$$$$
_c001
Actelion Java MolfileCreator 2.0

  0  0  0  0  0  0              0 V3000
M  V30 BEGIN CTAB
M  V30 COUNTS 21 23 0 0 0
M  V30 BEGIN ATOM
M  V30 1 Cl 2.1217 2.5616 0.0 0
M  V30 2 C 3.0773 2.2668 0.0 0
M  V30 3 C 3.2998 1.2919 0.0 0
M  V30 4 C 3.8103 2.947 0.0 0
M  V30 5 C 4.2553 0.9972 0.0 0
M  V30 6 C 4.7659 2.6523 0.0 0
M  V30 7 N 4.3301 0.0 0.0 0
M  V30 8 C 4.9884 1.6773 0.0 0
M  V30 9 C 5.1563 -0.5633 0.0 0
M  V30 10 C 3.4641 -0.5 0.0 0
M  V30 11 C 5.9772 1.5283 0.0 0
M  V30 12 C 6.1119 -0.2685 0.0 0
M  V30 13 C 4.9338 -1.5382 0.0 0
M  V30 14 C 2.598 0.0 0.0 0
M  V30 15 C 6.4772 0.6623 0.0 0
M  V30 16 C 6.8449 -0.9487 0.0 0
M  V30 17 C 5.6668 -2.2184 0.0 0
M  V30 18 C 1.732 -0.5 0.0 0
M  V30 19 C 6.6224 -1.9236 0.0 0
M  V30 20 N 0.866 0.0 0.0 0
M  V30 21 C 0.0 -0.5 0.0 0
M  V30 END ATOM
M  V30 BEGIN BOND
M  V30 1 1 1 2
M  V30 2 2 2 3
M  V30 3 1 2 4
M  V30 4 1 3 5
M  V30 5 2 4 6
M  V30 6 1 5 7
M  V30 7 2 5 8
M  V30 8 1 7 9
M  V30 9 1 7 10
M  V30 10 1 8 11
M  V30 11 2 9 12
M  V30 12 1 9 13
M  V30 13 1 10 14
M  V30 14 1 11 15
M  V30 15 1 12 16
M  V30 16 2 13 17
M  V30 17 1 14 18
M  V30 18 2 16 19
M  V30 19 1 18 20
M  V30 20 1 20 21
M  V30 21 1 6 8
M  V30 22 1 12 15
M  V30 23 1 17 19
M  V30 END BOND
M  V30 END CTAB
M  END
>  <Molecule Name>
_c001

>  <status>
-

>  <cas>
303-48-0

>  <name>
M CLOMIPRAMINE

>  <ID>
1693

>  <Smiles>
CNCCCN(c1c(CC2)cccc1)c1c2ccc(Cl)c1

$$$$
_c001
Actelion Java MolfileCreator 2.0

  0  0  0  0  0  0              0 V3000
M  V30 BEGIN CTAB
M  V30 COUNTS 28 30 0 0 0
M  V30 BEGIN ATOM
M  V30 1 O 8.1346 -1.6939 0.0 0
M  V30 2 C 7.1836 -1.3848 0.0 0
M  V30 3 O 6.4404 -2.054 0.0 0 CHG=-1
M  V30 4 C 6.9757 -0.4067 0.0 0 CFG=1
M  V30 5 N 6.0621 0.0 0.0 0
M  V30 6 C 7.6448 0.3364 0.0 0
M  V30 7 C 5.1961 -0.5 0.0 0
M  V30 8 C 6.1667 0.9945 0.0 0 CFG=2
M  V30 9 C 7.1448 1.2024 0.0 0 CFG=1
M  V30 10 O 5.1961 -1.4999 0.0 0
M  V30 11 C 4.3301 0.0 0.0 0 CFG=1
M  V30 12 C 5.6667 1.8605 0.0 0
M  V30 13 C 7.2493 2.1969 0.0 0
M  V30 14 N 3.4641 -0.5 0.0 0
M  V30 15 C 4.3301 1.0 0.0 0
M  V30 16 C 6.3358 2.6036 0.0 0
M  V30 17 C 2.598 0.0 0.0 0 CFG=2
M  V30 18 C 2.598 1.0 0.0 0
M  V30 19 C 1.732 -0.5 0.0 0
M  V30 20 O 3.4641 1.4999 0.0 0
M  V30 21 O 1.732 1.5 0.0 0 CHG=-1
M  V30 22 C 0.866 0.0 0.0 0
M  V30 23 C 0.0 -0.5 0.0 0
M  V30 24 C -0.866 0.0 0.0 0
M  V30 25 C 0.0 -1.4999 0.0 0
M  V30 26 C -1.732 -0.4999 0.0 0
M  V30 27 C -0.866 -1.9999 0.0 0
M  V30 28 C -1.732 -1.4999 0.0 0
M  V30 END ATOM
M  V30 BEGIN BOND
M  V30 1 2 1 2
M  V30 2 1 2 3
M  V30 3 1 4 2 CFG=1
M  V30 4 1 4 5
M  V30 5 1 4 6
M  V30 6 1 5 7
M  V30 7 1 8 5 CFG=1
M  V30 8 1 9 6 CFG=1
M  V30 9 2 7 10
M  V30 10 1 11 7
M  V30 11 1 8 12
M  V30 12 1 9 13
M  V30 13 1 11 14 CFG=1
M  V30 14 1 11 15
M  V30 15 1 12 16
M  V30 16 1 17 14 CFG=1
M  V30 17 1 17 18
M  V30 18 1 17 19
M  V30 19 2 18 20
M  V30 20 1 18 21
M  V30 21 1 19 22
M  V30 22 1 22 23
M  V30 23 2 23 24
M  V30 24 1 23 25
M  V30 25 1 24 26
M  V30 26 2 25 27
M  V30 27 2 26 28
M  V30 28 1 8 9
M  V30 29 1 13 16
M  V30 30 1 27 28
M  V30 END BOND
M  V30 BEGIN COLLECTION
M  V30 MDLV30/STERAC1 ATOMS=(5 4 8 9 11 17)
M  V30 END COLLECTION
M  V30 END CTAB
M  END
>  <Molecule Name>
_c001

>  <status>
-

>  <cas>
87269-97-4

>  <name>
RAMIPRILAT

>  <ID>
1694

>  <Smiles>
C[C@@H](C(N([C@@H](CCC1)[C@@H]1C1)[C@@H]1C([O-])=O)=O)N[C@@H](CCc1ccccc1)C([O-])=O

$$$$
_c001
Actelion Java MolfileCreator 2.0

  0  0  0  0  0  0              0 V3000
M  V30 BEGIN CTAB
M  V30 COUNTS 30 32 0 0 0
M  V30 BEGIN ATOM
M  V30 1 O 7.7942 -2.0 0.0 0
M  V30 2 C 6.9282 -1.5 0.0 0
M  V30 3 O 6.0621 -2.0 0.0 0 CHG=-1
M  V30 4 C 6.9282 -0.5 0.0 0 CFG=1
M  V30 5 N 6.0621 0.0 0.0 0
M  V30 6 C 7.7942 0.0 0.0 0
M  V30 7 C 5.1961 -0.5 0.0 0
M  V30 8 C 6.0621 0.9999 0.0 0
M  V30 9 C 7.7942 0.9999 0.0 0
M  V30 10 O 5.1961 -1.4999 0.0 0
M  V30 11 C 4.3301 0.0 0.0 0 CFG=1
M  V30 12 C 6.9282 1.4999 0.0 0
M  V30 13 C 8.6602 1.4999 0.0 0
M  V30 14 N 3.4641 -0.5 0.0 0
M  V30 15 C 4.3301 1.0 0.0 0
M  V30 16 C 6.9282 2.4999 0.0 0
M  V30 17 C 8.6602 2.4999 0.0 0
M  V30 18 C 2.598 0.0 0.0 0 CFG=2
M  V30 19 C 7.7942 2.9999 0.0 0
M  V30 20 C 2.598 1.0 0.0 0
M  V30 21 C 1.732 -0.5 0.0 0
M  V30 22 O 3.4641 1.4999 0.0 0
M  V30 23 O 1.732 1.5 0.0 0 CHG=-1
M  V30 24 C 0.866 0.0 0.0 0
M  V30 25 C 0.0 -0.5 0.0 0
M  V30 26 C -0.866 0.0 0.0 0
M  V30 27 C 0.0 -1.4999 0.0 0
M  V30 28 C -1.732 -0.4999 0.0 0
M  V30 29 C -0.866 -1.9999 0.0 0
M  V30 30 C -1.732 -1.4999 0.0 0
M  V30 END ATOM
M  V30 BEGIN BOND
M  V30 1 2 1 2
M  V30 2 1 2 3
M  V30 3 1 4 2 CFG=1
M  V30 4 1 4 5
M  V30 5 1 4 6
M  V30 6 1 5 7
M  V30 7 1 5 8
M  V30 8 1 6 9
M  V30 9 2 7 10
M  V30 10 1 11 7
M  V30 11 1 8 12
M  V30 12 1 9 13
M  V30 13 1 11 14 CFG=1
M  V30 14 1 11 15
M  V30 15 1 12 16
M  V30 16 2 13 17
M  V30 17 1 18 14 CFG=1
M  V30 18 2 16 19
M  V30 19 1 18 20
M  V30 20 1 18 21
M  V30 21 2 20 22
M  V30 22 1 20 23
M  V30 23 1 21 24
M  V30 24 1 24 25
M  V30 25 2 25 26
M  V30 26 1 25 27
M  V30 27 1 26 28
M  V30 28 2 27 29
M  V30 29 2 28 30
M  V30 30 2 9 12
M  V30 31 1 17 19
M  V30 32 1 29 30
M  V30 END BOND
M  V30 BEGIN COLLECTION
M  V30 MDLV30/STERAC1 ATOMS=(3 4 11 18)
M  V30 END COLLECTION
M  V30 END CTAB
M  END
>  <Molecule Name>
_c001

>  <status>
-

>  <cas>
82768-85-2

>  <name>
QUINAPRILAT

>  <ID>
1695

>  <Smiles>
C[C@@H](C(N(Cc1c(C2)cccc1)[C@@H]2C([O-])=O)=O)N[C@@H](CCc1ccccc1)C([O-])=O

$$$$
_c001
Actelion Java MolfileCreator 2.0

  0  0  0  0  0  0              0 V3000
M  V30 BEGIN CTAB
M  V30 COUNTS 29 31 0 0 0
M  V30 BEGIN ATOM
M  V30 1 O 4.9867 2.0438 0.0 0
M  V30 2 C 6.383 1.4958 0.0 0
M  V30 3 N 7.4826 2.516 0.0 0
M  V30 4 C 6.4951 0.0 0.0 0 CFG=1
M  V30 5 C 8.9659 2.2925 0.0 0
M  V30 6 C 7.0405 3.9494 0.0 0
M  V30 7 N 5.1961 -0.75 0.0 0
M  V30 8 C 7.7345 -0.8449 0.0 0
M  V30 9 C 9.7159 0.9934 0.0 0
M  V30 10 C 9.7159 3.5915 0.0 0
M  V30 11 C 5.5781 4.2832 0.0 0
M  V30 12 C 5.1961 -2.25 0.0 0 CFG=2
M  V30 13 C 9.1679 -0.4028 0.0 0
M  V30 14 C 11.2159 0.9934 0.0 0
M  V30 15 C 11.2159 3.5915 0.0 0
M  V30 16 O 4.5578 3.1836 0.0 0
M  V30 17 O 5.136 5.7165 0.0 0 CHG=-1
M  V30 18 C 6.4951 -3.0 0.0 0
M  V30 19 C 3.8971 -2.9999 0.0 0
M  V30 20 C 11.9659 2.2925 0.0 0
M  V30 21 O 7.7942 -2.2499 0.0 0
M  V30 22 O 6.4951 -4.5 0.0 0 CHG=-1
M  V30 23 C 3.8971 -4.5 0.0 0
M  V30 24 C 2.598 -5.25 0.0 0
M  V30 25 C 2.598 -6.75 0.0 0
M  V30 26 C 1.299 -4.5 0.0 0
M  V30 27 C 1.299 -7.5 0.0 0
M  V30 28 C 0.0 -5.25 0.0 0
M  V30 29 C 0.0 -6.75 0.0 0
M  V30 END ATOM
M  V30 BEGIN BOND
M  V30 1 2 1 2
M  V30 2 1 2 3
M  V30 3 1 4 2
M  V30 4 1 3 5
M  V30 5 1 3 6
M  V30 6 1 4 7 CFG=3
M  V30 7 1 4 8
M  V30 8 2 5 9
M  V30 9 1 5 10
M  V30 10 1 6 11
M  V30 11 1 12 7 CFG=3
M  V30 12 1 8 13
M  V30 13 1 9 14
M  V30 14 2 10 15
M  V30 15 2 11 16
M  V30 16 1 11 17
M  V30 17 1 12 18
M  V30 18 1 12 19
M  V30 19 2 14 20
M  V30 20 2 18 21
M  V30 21 1 18 22
M  V30 22 1 19 23
M  V30 23 1 23 24
M  V30 24 2 24 25
M  V30 25 1 24 26
M  V30 26 1 25 27
M  V30 27 2 26 28
M  V30 28 2 27 29
M  V30 29 1 9 13
M  V30 30 1 15 20
M  V30 31 1 28 29
M  V30 END BOND
M  V30 BEGIN COLLECTION
M  V30 MDLV30/STERAC1 ATOMS=(2 4 12)
M  V30 END COLLECTION
M  V30 END CTAB
M  END
>  <Molecule Name>
_c001

>  <status>
-

>  <cas>
86541-78-8

>  <name>
BENAZEPRILAT

>  <ID>
1696

>  <Smiles>
[O-]C(CN(c1c(CC[C@@H]2N[C@@H](CCc3ccccc3)C([O-])=O)cccc1)C2=O)=O

$$$$
_c001
Actelion Java MolfileCreator 2.0

  0  0  0  0  0  0              0 V3000
M  V30 BEGIN CTAB
M  V30 COUNTS 31 32 0 0 0
M  V30 BEGIN ATOM
M  V30 1 O 11.6913 4.5 0.0 0
M  V30 2 C 10.3923 3.75 0.0 0
M  V30 3 O 10.3923 2.25 0.0 0
M  V30 4 C 9.0932 4.5 0.0 0
M  V30 5 C 11.6913 1.5 0.0 0 CFG=2
M  V30 6 C 9.0932 6.0 0.0 0
M  V30 7 C 7.5933 4.5 0.0 0
M  V30 8 C 8.3433 3.2009 0.0 0
M  V30 9 C 11.6913 0.0 0.0 0 CFG=1
M  V30 10 C 12.9903 2.25 0.0 0
M  V30 11 C 7.7942 6.75 0.0 0
M  V30 12 C 12.9903 -0.75 0.0 0
M  V30 13 C 10.3923 -0.75 0.0 0 CFG=2
M  V30 14 C 14.2894 1.5 0.0 0 CFG=2
M  V30 15 C 12.9903 -2.25 0.0 0
M  V30 16 C 14.2894 0.0 0.0 0
M  V30 17 C 10.3923 -2.25 0.0 0 CFG=2
M  V30 18 C 9.0932 0.0 0.0 0
M  V30 19 C 15.5884 2.25 0.0 0
M  V30 20 C 11.6913 -3.0 0.0 0
M  V30 21 C 9.0932 -3.0 0.0 0
M  V30 22 C 7.7942 -0.75 0.0 0
M  V30 23 C 6.4951 0.0 0.0 0 CFG=1
M  V30 24 O 6.4951 1.5 0.0 0
M  V30 25 C 5.1961 -0.75 0.0 0
M  V30 26 C 3.8971 0.0 0.0 0 CFG=1
M  V30 27 O 3.8971 1.5 0.0 0
M  V30 28 C 2.598 -0.75 0.0 0
M  V30 29 C 1.299 0.0 0.0 0
M  V30 30 O 1.299 1.5 0.0 0
M  V30 31 O 0.0 -0.75 0.0 0 CHG=-1
M  V30 END ATOM
M  V30 BEGIN BOND
M  V30 1 2 1 2
M  V30 2 1 2 3
M  V30 3 1 2 4
M  V30 4 1 5 3 CFG=1
M  V30 5 1 4 6
M  V30 6 1 4 7
M  V30 7 1 4 8
M  V30 8 1 9 5
M  V30 9 1 5 10
M  V30 10 1 6 11
M  V30 11 1 9 12 CFG=1
M  V30 12 1 13 9
M  V30 13 1 14 10
M  V30 14 1 12 15
M  V30 15 2 12 16
M  V30 16 1 17 13
M  V30 17 1 13 18 CFG=3
M  V30 18 1 14 19 CFG=1
M  V30 19 2 15 20
M  V30 20 1 17 21 CFG=3
M  V30 21 1 18 22
M  V30 22 1 23 22
M  V30 23 1 23 24 CFG=3
M  V30 24 1 23 25
M  V30 25 1 26 25
M  V30 26 1 26 27 CFG=3
M  V30 27 1 26 28
M  V30 28 1 28 29
M  V30 29 2 29 30
M  V30 30 1 29 31
M  V30 31 1 14 16
M  V30 32 1 17 20
M  V30 END BOND
M  V30 BEGIN COLLECTION
M  V30 MDLV30/STERAC1 ATOMS=(7 5 9 13 14 17 23 26)
M  V30 END COLLECTION
M  V30 END CTAB
M  END
>  <Molecule Name>
_c001

>  <status>
-

>  <cas>
121009-77-6

>  <name>
M SIMVASTATIN

>  <ID>
1697

>  <Smiles>
CCC(C)(C)C(O[C@@H]1[C@H]([C@@H](CC[C@H](C[C@H](CC([O-])=O)O)O)[C@@H](C)C=C2)C2=C[C@H](C)C1)=O

$$$$
_c001
Actelion Java MolfileCreator 2.0

  0  0  0  0  0  0              0 V3000
M  V30 BEGIN CTAB
M  V30 COUNTS 14 13 0 0 0
M  V30 BEGIN ATOM
M  V30 1 S 6.0621 0.0 0.0 0
M  V30 2 O 6.5621 -0.866 0.0 0
M  V30 3 O 5.5621 0.866 0.0 0
M  V30 4 O 6.9282 0.4999 0.0 0
M  V30 5 C 5.1961 -0.5 0.0 0
M  V30 6 C 4.3301 0.0 0.0 0
M  V30 7 S 3.4641 -0.5 0.0 0
M  V30 8 S 2.598 0.0 0.0 0
M  V30 9 C 1.732 -0.5 0.0 0
M  V30 10 C 0.866 0.0 0.0 0
M  V30 11 S 0.0 -0.5 0.0 0
M  V30 12 O -0.4999 0.366 0.0 0
M  V30 13 O 0.4999 -1.366 0.0 0
M  V30 14 O -0.866 -0.9999 0.0 0
M  V30 END ATOM
M  V30 BEGIN BOND
M  V30 1 2 1 2
M  V30 2 2 1 3
M  V30 3 1 1 4
M  V30 4 1 1 5
M  V30 5 1 5 6
M  V30 6 1 6 7
M  V30 7 1 7 8
M  V30 8 1 8 9
M  V30 9 1 9 10
M  V30 10 1 10 11
M  V30 11 2 11 12
M  V30 12 2 11 13
M  V30 13 1 11 14
M  V30 END BOND
M  V30 END CTAB
M  END
>  <Molecule Name>
_c001

>  <status>
-

>  <cas>
16208-51-8

>  <name>
DIMESNA

>  <ID>
1698

>  <Smiles>
OS(CCSSCCS(O)(=O)=O)(=O)=O

$$$$
_c001
Actelion Java MolfileCreator 2.0

  0  0  0  0  0  0              0 V3000
M  V30 BEGIN CTAB
M  V30 COUNTS 30 31 0 0 0
M  V30 BEGIN ATOM
M  V30 1 O 11.6913 4.5 0.0 0
M  V30 2 C 10.3923 3.75 0.0 0
M  V30 3 O 10.3923 2.25 0.0 0
M  V30 4 C 9.0932 4.5 0.0 0 CFG=2
M  V30 5 C 11.6913 1.4999 0.0 0 CFG=2
M  V30 6 C 9.0932 6.0 0.0 0
M  V30 7 C 7.7942 3.7499 0.0 0
M  V30 8 C 11.6913 0.0 0.0 0 CFG=1
M  V30 9 C 12.9903 2.2499 0.0 0
M  V30 10 C 7.7942 6.75 0.0 0
M  V30 11 C 12.9903 -0.75 0.0 0
M  V30 12 C 10.3923 -0.75 0.0 0 CFG=2
M  V30 13 C 14.2894 1.5 0.0 0 CFG=2
M  V30 14 C 12.9903 -2.25 0.0 0
M  V30 15 C 14.2894 0.0 0.0 0
M  V30 16 C 10.3923 -2.25 0.0 0 CFG=2
M  V30 17 C 9.0932 0.0 0.0 0
M  V30 18 C 15.5884 2.25 0.0 0
M  V30 19 C 11.6913 -3.0 0.0 0
M  V30 20 C 9.0932 -2.9999 0.0 0
M  V30 21 C 7.7942 -0.75 0.0 0
M  V30 22 C 6.4951 0.0 0.0 0 CFG=1
M  V30 23 O 6.4951 1.5 0.0 0
M  V30 24 C 5.1961 -0.75 0.0 0
M  V30 25 C 3.8971 0.0 0.0 0 CFG=1
M  V30 26 O 3.8971 1.5 0.0 0
M  V30 27 C 2.598 -0.75 0.0 0
M  V30 28 C 1.299 0.0 0.0 0
M  V30 29 O 1.299 1.5 0.0 0
M  V30 30 O 0.0 -0.75 0.0 0 CHG=-1
M  V30 END ATOM
M  V30 BEGIN BOND
M  V30 1 2 1 2
M  V30 2 1 2 3
M  V30 3 1 4 2
M  V30 4 1 5 3 CFG=1
M  V30 5 1 4 6
M  V30 6 1 4 7 CFG=1
M  V30 7 1 8 5
M  V30 8 1 5 9
M  V30 9 1 6 10
M  V30 10 1 8 11 CFG=1
M  V30 11 1 12 8
M  V30 12 1 13 9
M  V30 13 1 11 14
M  V30 14 2 11 15
M  V30 15 1 16 12
M  V30 16 1 12 17 CFG=3
M  V30 17 1 13 18 CFG=1
M  V30 18 2 14 19
M  V30 19 1 16 20 CFG=3
M  V30 20 1 17 21
M  V30 21 1 22 21
M  V30 22 1 22 23 CFG=3
M  V30 23 1 22 24
M  V30 24 1 25 24
M  V30 25 1 25 26 CFG=3
M  V30 26 1 25 27
M  V30 27 1 27 28
M  V30 28 2 28 29
M  V30 29 1 28 30
M  V30 30 1 13 15
M  V30 31 1 16 19
M  V30 END BOND
M  V30 BEGIN COLLECTION
M  V30 MDLV30/STERAC1 ATOMS=(8 4 5 8 12 13 16 22 25)
M  V30 END COLLECTION
M  V30 END CTAB
M  END
>  <Molecule Name>
_c001

>  <status>
-

>  <cas>
75225-51-3

>  <name>
M LOVASTATIN

>  <ID>
1699

>  <Smiles>
CC[C@H](C)C(O[C@@H]1[C@H]([C@@H](CC[C@H](C[C@H](CC([O-])=O)O)O)[C@@H](C)C=C2)C2=C[C@H](C)C1)=O

$$$$
_c001
Actelion Java MolfileCreator 2.0

  0  0  0  0  0  0              0 V3000
M  V30 BEGIN CTAB
M  V30 COUNTS 16 17 0 0 0
M  V30 BEGIN ATOM
M  V30 1 O 2.598 0.0 0.0 0
M  V30 2 C 1.732 -0.5 0.0 0
M  V30 3 O 1.732 -1.5 0.0 0 CHG=-1
M  V30 4 C 0.866 0.0 0.0 0
M  V30 5 C 0.0 -0.5 0.0 0
M  V30 6 C -0.866 0.0 0.0 0
M  V30 7 C 0.0 -1.4999 0.0 0
M  V30 8 C -1.732 -0.4999 0.0 0
M  V30 9 C -0.866 -1.9999 0.0 0
M  V30 10 C -1.732 -1.4999 0.0 0
M  V30 11 C -2.598 0.0 0.0 0
M  V30 12 C -2.598 -1.9999 0.0 0
M  V30 13 C -3.4641 -0.4999 0.0 0
M  V30 14 C -3.4641 -1.4999 0.0 0
M  V30 15 O -4.3301 -1.9999 0.0 0
M  V30 16 C -4.3301 -2.9999 0.0 0
M  V30 END ATOM
M  V30 BEGIN BOND
M  V30 1 2 1 2
M  V30 2 1 2 3
M  V30 3 1 2 4
M  V30 4 1 4 5
M  V30 5 2 5 6
M  V30 6 1 5 7
M  V30 7 1 6 8
M  V30 8 2 7 9
M  V30 9 1 8 10
M  V30 10 2 8 11
M  V30 11 2 10 12
M  V30 12 1 11 13
M  V30 13 1 12 14
M  V30 14 1 14 15
M  V30 15 1 15 16
M  V30 16 1 9 10
M  V30 17 2 13 14
M  V30 END BOND
M  V30 END CTAB
M  END
>  <Molecule Name>
_c001

>  <status>
-

>  <cas>
23981-47-7

>  <name>
M NABUMETONE

>  <ID>
1700

>  <Smiles>
COc1ccc(cc(CC([O-])=O)cc2)c2c1

$$$$
_c001
Actelion Java MolfileCreator 2.0

  0  0  0  0  0  0              0 V3000
M  V30 BEGIN CTAB
M  V30 COUNTS 26 26 0 0 0
M  V30 BEGIN ATOM
M  V30 1 O 12.0745 1.3273 0.0 0
M  V30 2 C 11.7626 -0.1398 0.0 0
M  V30 3 C 10.3923 -0.75 0.0 0 CFG=1
M  V30 4 C 12.7663 -1.2546 0.0 0
M  V30 5 C 10.5491 -2.2417 0.0 0 CFG=2
M  V30 6 C 9.0932 0.0 0.0 0
M  V30 7 C 12.0163 -2.5536 0.0 0 CFG=2
M  V30 8 C 9.4343 -3.2454 0.0 0
M  V30 9 C 7.7942 -0.75 0.0 0
M  V30 10 O 12.6264 -3.9239 0.0 0
M  V30 11 C 9.7462 -4.7127 0.0 0
M  V30 12 C 6.4952 0.0 0.0 0
M  V30 13 C 8.6315 -5.7164 0.0 0
M  V30 14 C 5.1961 -0.75 0.0 0
M  V30 15 C 8.9434 -7.1836 0.0 0 CFG=1
M  V30 16 C 3.8971 0.0 0.0 0
M  V30 17 O 9.947 -8.2983 0.0 0
M  V30 18 C 7.8286 -8.1873 0.0 0
M  V30 19 C 10.4106 -6.8717 0.0 0
M  V30 20 C 2.598 -0.75 0.0 0
M  V30 21 C 8.1405 -9.6545 0.0 0
M  V30 22 C 1.299 0.0 0.0 0
M  V30 23 C 7.0258 -10.6582 0.0 0
M  V30 24 O 1.299 1.5 0.0 0
M  V30 25 O 0.0 -0.75 0.0 0 CHG=-1
M  V30 26 C 7.3377 -12.1254 0.0 0
M  V30 END ATOM
M  V30 BEGIN BOND
M  V30 1 2 1 2
M  V30 2 1 3 2
M  V30 3 1 2 4
M  V30 4 1 5 3
M  V30 5 1 3 6 CFG=1
M  V30 6 1 7 4
M  V30 7 1 5 8 CFG=3
M  V30 8 1 6 9
M  V30 9 1 7 10 CFG=1
M  V30 10 2 8 11
M  V30 11 1 9 12
M  V30 12 1 11 13
M  V30 13 1 12 14
M  V30 14 1 15 13
M  V30 15 1 14 16
M  V30 16 1 15 17 CFG=1
M  V30 17 1 15 18
M  V30 18 1 15 19
M  V30 19 1 16 20
M  V30 20 1 18 21
M  V30 21 1 20 22
M  V30 22 1 21 23
M  V30 23 2 22 24
M  V30 24 1 22 25
M  V30 25 1 23 26
M  V30 26 1 5 7
M  V30 END BOND
M  V30 BEGIN COLLECTION
M  V30 MDLV30/STERAC1 ATOMS=(4 3 5 7 15)
M  V30 END COLLECTION
M  V30 END CTAB
M  END
>  <Molecule Name>
_c001

>  <status>
-

>  <cas>
259218-79-6

>  <name>
M MISOPROSTOL

>  <ID>
1701

>  <Smiles>
CCCC[C@@](C)(C/C=C/[C@H]([C@@H](CCCCCCC([O-])=O)C(C1)=O)[C@@H]1O)O

$$$$
_c001
Actelion Java MolfileCreator 2.0

  0  0  0  0  0  0              0 V3000
M  V30 BEGIN CTAB
M  V30 COUNTS 24 25 0 0 0
M  V30 BEGIN ATOM
M  V30 1 O 8.6602 -1.5 0.0 0
M  V30 2 C 8.6602 -0.5 0.0 0
M  V30 3 N 9.5262 0.0 0.0 0
M  V30 4 C 7.7942 0.0 0.0 0
M  V30 5 C 7.7942 0.9999 0.0 0
M  V30 6 C 6.9282 -0.5 0.0 0
M  V30 7 O 8.6602 1.4999 0.0 0
M  V30 8 C 6.9282 1.4999 0.0 0
M  V30 9 C 6.0621 0.0 0.0 0
M  V30 10 C 6.0621 1.0 0.0 0
M  V30 11 C 5.1961 -0.5 0.0 0 CFG=1
M  V30 12 O 5.1961 -1.4999 0.0 0
M  V30 13 C 4.3301 0.0 0.0 0
M  V30 14 N 3.4641 -0.5 0.0 0
M  V30 15 C 2.598 0.0 0.0 0 CFG=2
M  V30 16 C 1.732 -0.5 0.0 0
M  V30 17 C 2.598 1.0 0.0 0
M  V30 18 C 0.866 0.0 0.0 0
M  V30 19 C 0.0 -0.5 0.0 0
M  V30 20 C -0.866 0.0 0.0 0
M  V30 21 C 0.0 -1.4999 0.0 0
M  V30 22 C -1.732 -0.4999 0.0 0
M  V30 23 C -0.866 -1.9999 0.0 0
M  V30 24 C -1.732 -1.4999 0.0 0
M  V30 END ATOM
M  V30 BEGIN BOND
M  V30 1 2 1 2
M  V30 2 1 2 3
M  V30 3 1 2 4
M  V30 4 2 4 5
M  V30 5 1 4 6
M  V30 6 1 5 7
M  V30 7 1 5 8
M  V30 8 2 6 9
M  V30 9 2 8 10
M  V30 10 1 11 9
M  V30 11 1 11 12 CFG=1
M  V30 12 1 11 13
M  V30 13 1 13 14
M  V30 14 1 15 14 CFG=3
M  V30 15 1 15 16
M  V30 16 1 15 17
M  V30 17 1 16 18
M  V30 18 1 18 19
M  V30 19 2 19 20
M  V30 20 1 19 21
M  V30 21 1 20 22
M  V30 22 2 21 23
M  V30 23 2 22 24
M  V30 24 1 9 10
M  V30 25 1 23 24
M  V30 END BOND
M  V30 BEGIN COLLECTION
M  V30 MDLV30/STERAC1 ATOMS=(2 11 15)
M  V30 END COLLECTION
M  V30 END CTAB
M  END
>  <Molecule Name>
_c001

>  <status>
-

>  <cas>
36894-69-6

>  <name>
LABETALOL

>  <ID>
1702

>  <Smiles>
C[C@@H](CCc1ccccc1)NC[C@@H](c(cc1)cc(C(N)=O)c1O)O

$$$$
_c001
Actelion Java MolfileCreator 2.0

  0  0  0  0  0  0              0 V3000
M  V30 BEGIN CTAB
M  V30 COUNTS 24 25 0 0 0
M  V30 BEGIN ATOM
M  V30 1 O 8.6602 -1.5 0.0 0
M  V30 2 C 8.6602 -0.5 0.0 0
M  V30 3 N 9.5262 0.0 0.0 0
M  V30 4 C 7.7942 0.0 0.0 0
M  V30 5 C 7.7942 0.9999 0.0 0
M  V30 6 C 6.9282 -0.5 0.0 0
M  V30 7 O 8.6602 1.4999 0.0 0
M  V30 8 C 6.9282 1.4999 0.0 0
M  V30 9 C 6.0621 0.0 0.0 0
M  V30 10 C 6.0621 1.0 0.0 0
M  V30 11 C 5.1961 -0.5 0.0 0 CFG=1
M  V30 12 O 5.1961 -1.4999 0.0 0
M  V30 13 C 4.3301 0.0 0.0 0
M  V30 14 N 3.4641 -0.5 0.0 0
M  V30 15 C 2.598 0.0 0.0 0 CFG=2
M  V30 16 C 1.732 -0.5 0.0 0
M  V30 17 C 2.598 1.0 0.0 0
M  V30 18 C 0.866 0.0 0.0 0
M  V30 19 C 0.0 -0.5 0.0 0
M  V30 20 C -0.866 0.0 0.0 0
M  V30 21 C 0.0 -1.4999 0.0 0
M  V30 22 C -1.732 -0.4999 0.0 0
M  V30 23 C -0.866 -1.9999 0.0 0
M  V30 24 C -1.732 -1.4999 0.0 0
M  V30 END ATOM
M  V30 BEGIN BOND
M  V30 1 2 1 2
M  V30 2 1 2 3
M  V30 3 1 2 4
M  V30 4 2 4 5
M  V30 5 1 4 6
M  V30 6 1 5 7
M  V30 7 1 5 8
M  V30 8 2 6 9
M  V30 9 2 8 10
M  V30 10 1 11 9
M  V30 11 1 11 12 CFG=1
M  V30 12 1 11 13
M  V30 13 1 13 14
M  V30 14 1 15 14 CFG=3
M  V30 15 1 15 16
M  V30 16 1 15 17
M  V30 17 1 16 18
M  V30 18 1 18 19
M  V30 19 2 19 20
M  V30 20 1 19 21
M  V30 21 1 20 22
M  V30 22 2 21 23
M  V30 23 2 22 24
M  V30 24 1 9 10
M  V30 25 1 23 24
M  V30 END BOND
M  V30 BEGIN COLLECTION
M  V30 MDLV30/STERAC1 ATOMS=(2 11 15)
M  V30 END COLLECTION
M  V30 END CTAB
M  END
>  <Molecule Name>
_c001

>  <status>
-

>  <cas>
36894-69-6

>  <name>
LABETALOL

>  <ID>
1703

>  <Smiles>
C[C@@H](CCc1ccccc1)NC[C@@H](c(cc1)cc(C(N)=O)c1O)O

$$$$
_c001
Actelion Java MolfileCreator 2.0

  0  0  0  0  0  0              0 V3000
M  V30 BEGIN CTAB
M  V30 COUNTS 24 25 0 0 0
M  V30 BEGIN ATOM
M  V30 1 O 8.6602 -1.5 0.0 0
M  V30 2 C 8.6602 -0.5 0.0 0
M  V30 3 N 9.5262 0.0 0.0 0
M  V30 4 C 7.7942 0.0 0.0 0
M  V30 5 C 7.7942 0.9999 0.0 0
M  V30 6 C 6.9282 -0.5 0.0 0
M  V30 7 O 8.6602 1.4999 0.0 0
M  V30 8 C 6.9282 1.4999 0.0 0
M  V30 9 C 6.0621 0.0 0.0 0
M  V30 10 C 6.0621 1.0 0.0 0
M  V30 11 C 5.1961 -0.5 0.0 0 CFG=1
M  V30 12 O 5.1961 -1.4999 0.0 0
M  V30 13 C 4.3301 0.0 0.0 0
M  V30 14 N 3.4641 -0.5 0.0 0
M  V30 15 C 2.598 0.0 0.0 0 CFG=1
M  V30 16 C 1.732 -0.5 0.0 0
M  V30 17 C 2.598 1.0 0.0 0
M  V30 18 C 0.866 0.0 0.0 0
M  V30 19 C 0.0 -0.5 0.0 0
M  V30 20 C -0.866 0.0 0.0 0
M  V30 21 C 0.0 -1.4999 0.0 0
M  V30 22 C -1.732 -0.4999 0.0 0
M  V30 23 C -0.866 -1.9999 0.0 0
M  V30 24 C -1.732 -1.4999 0.0 0
M  V30 END ATOM
M  V30 BEGIN BOND
M  V30 1 2 1 2
M  V30 2 1 2 3
M  V30 3 1 2 4
M  V30 4 2 4 5
M  V30 5 1 4 6
M  V30 6 1 5 7
M  V30 7 1 5 8
M  V30 8 2 6 9
M  V30 9 2 8 10
M  V30 10 1 11 9
M  V30 11 1 11 12 CFG=1
M  V30 12 1 11 13
M  V30 13 1 13 14
M  V30 14 1 15 14 CFG=1
M  V30 15 1 15 16
M  V30 16 1 15 17
M  V30 17 1 16 18
M  V30 18 1 18 19
M  V30 19 2 19 20
M  V30 20 1 19 21
M  V30 21 1 20 22
M  V30 22 2 21 23
M  V30 23 2 22 24
M  V30 24 1 9 10
M  V30 25 1 23 24
M  V30 END BOND
M  V30 BEGIN COLLECTION
M  V30 MDLV30/STERAC1 ATOMS=(2 11 15)
M  V30 END COLLECTION
M  V30 END CTAB
M  END
>  <Molecule Name>
_c001

>  <status>
-

>  <cas>
36894-69-6

>  <name>
LABETALOL

>  <ID>
1704

>  <Smiles>
C[C@H](CCc1ccccc1)NC[C@@H](c(cc1)cc(C(N)=O)c1O)O

$$$$
_c001
Actelion Java MolfileCreator 2.0

  0  0  0  0  0  0              0 V3000
M  V30 BEGIN CTAB
M  V30 COUNTS 20 20 0 0 0
M  V30 BEGIN ATOM
M  V30 1 F 5.6961 0.366 0.0 0
M  V30 2 C 5.1961 -0.5 0.0 0
M  V30 3 F 6.0621 -1.0 0.0 0
M  V30 4 F 4.6961 -1.366 0.0 0
M  V30 5 C 4.3301 0.0 0.0 0
M  V30 6 C 4.3301 1.0 0.0 0
M  V30 7 C 3.4641 -0.4999 0.0 0
M  V30 8 N 5.1961 1.5 0.0 0 CHG=1
M  V30 9 C 3.4641 1.5 0.0 0
M  V30 10 C 2.598 0.0 0.0 0
M  V30 11 O 6.0621 1.0 0.0 0
M  V30 12 O 5.1961 2.5 0.0 0 CHG=-1
M  V30 13 C 2.598 1.0 0.0 0
M  V30 14 N 1.732 -0.5 0.0 0
M  V30 15 C 0.866 0.0 0.0 0
M  V30 16 O 0.866 1.0 0.0 0
M  V30 17 C 0.0 -0.5 0.0 0
M  V30 18 O 0.4999 -1.366 0.0 0
M  V30 19 C -0.866 -0.9999 0.0 0
M  V30 20 C -0.4999 0.366 0.0 0
M  V30 END ATOM
M  V30 BEGIN BOND
M  V30 1 1 1 2
M  V30 2 1 2 3
M  V30 3 1 2 4
M  V30 4 1 2 5
M  V30 5 2 5 6
M  V30 6 1 5 7
M  V30 7 1 6 8
M  V30 8 1 6 9
M  V30 9 2 7 10
M  V30 10 2 8 11
M  V30 11 1 8 12
M  V30 12 2 9 13
M  V30 13 1 10 14
M  V30 14 1 14 15
M  V30 15 2 15 16
M  V30 16 1 15 17
M  V30 17 1 17 18
M  V30 18 1 17 19
M  V30 19 1 17 20
M  V30 20 1 10 13
M  V30 END BOND
M  V30 END CTAB
M  END
>  <Molecule Name>
_c001

>  <status>
-

>  <cas>
52806-53-8

>  <name>
M FLUTAMIDE

>  <ID>
1705

>  <Smiles>
CC(C)(C(Nc(cc1)cc(C(F)(F)F)c1[N+]([O-])=O)=O)O

$$$$
_c001
Actelion Java MolfileCreator 2.0

  0  0  0  0  0  0              0 V3000
M  V30 BEGIN CTAB
M  V30 COUNTS 19 20 0 0 0
M  V30 BEGIN ATOM
M  V30 1 S 1.732 -0.5 0.0 0
M  V30 2 O 1.232 -1.366 0.0 0
M  V30 3 O 2.232 0.366 0.0 0
M  V30 4 O 0.866 0.0 0.0 0
M  V30 5 O 2.598 -0.9999 0.0 0
M  V30 6 N 0.0 -0.5 0.0 0
M  V30 7 C -0.866 0.0 0.0 0
M  V30 8 C 0.0 -1.4999 0.0 0
M  V30 9 N -1.732 -0.4999 0.0 0
M  V30 10 N -0.866 1.0 0.0 0
M  V30 11 N 0.866 -2.0 0.0 0
M  V30 12 C -0.866 -1.9999 0.0 0
M  V30 13 C -1.732 -1.4999 0.0 0
M  V30 14 N -2.598 -1.9999 0.0 0
M  V30 15 C -3.4641 -1.4999 0.0 0
M  V30 16 C -2.598 -2.9999 0.0 0
M  V30 17 C -4.3301 -1.9999 0.0 0
M  V30 18 C -3.4641 -3.4999 0.0 0
M  V30 19 C -4.3301 -2.9999 0.0 0
M  V30 END ATOM
M  V30 BEGIN BOND
M  V30 1 2 1 2
M  V30 2 2 1 3
M  V30 3 1 1 4
M  V30 4 1 1 5
M  V30 5 1 4 6
M  V30 6 1 6 7
M  V30 7 1 6 8
M  V30 8 1 7 9
M  V30 9 2 7 10
M  V30 10 1 8 11
M  V30 11 2 8 12
M  V30 12 2 9 13
M  V30 13 1 13 14
M  V30 14 1 14 15
M  V30 15 1 14 16
M  V30 16 1 15 17
M  V30 17 1 16 18
M  V30 18 1 17 19
M  V30 19 1 12 13
M  V30 20 1 18 19
M  V30 END BOND
M  V30 END CTAB
M  END
>  <Molecule Name>
_c001

>  <status>
-

>  <cas>
83701-22-8

>  <name>
M MINOXIDIL

>  <ID>
1706

>  <Smiles>
NC(N1OS(O)(=O)=O)=CC(N2CCCCC2)=NC1=N

$$$$
_c001
Actelion Java MolfileCreator 2.0

  0  0  0  0  0  0              0 V3000
M  V30 BEGIN CTAB
M  V30 COUNTS 27 29 0 0 0
M  V30 BEGIN ATOM
M  V30 1 O 3.4641 -0.5 0.0 0
M  V30 2 C 4.3301 0.0 0.0 0
M  V30 3 C 2.598 0.0 0.0 0
M  V30 4 C 5.1961 -0.4999 0.0 0
M  V30 5 C 4.3301 0.9999 0.0 0
M  V30 6 C 1.732 -0.5 0.0 0
M  V30 7 C 6.0621 0.0 0.0 0
M  V30 8 C 5.1961 1.4999 0.0 0
M  V30 9 N 0.866 0.0 0.0 0
M  V30 10 C 6.0621 1.0 0.0 0
M  V30 11 C 0.0 -0.5 0.0 0
M  V30 12 C 6.9282 1.5 0.0 0
M  V30 13 C 7.7942 1.0 0.0 0
M  V30 14 C 6.9282 2.5 0.0 0
M  V30 15 C 7.7942 0.0 0.0 0
M  V30 16 C 8.6602 1.4999 0.0 0
M  V30 17 C 6.0621 3.0 0.0 0
M  V30 18 C 7.7942 3.0 0.0 0
M  V30 19 C 8.6602 -0.5 0.0 0
M  V30 20 C 9.5262 0.9999 0.0 0
M  V30 21 C 6.0621 4.0 0.0 0
M  V30 22 C 5.1961 2.5 0.0 0
M  V30 23 C 7.7942 4.0 0.0 0
M  V30 24 C 9.5262 0.0 0.0 0
M  V30 25 C 5.1961 4.5 0.0 0
M  V30 26 C 4.3301 3.0 0.0 0
M  V30 27 C 4.3301 4.0 0.0 0
M  V30 END ATOM
M  V30 BEGIN BOND
M  V30 1 1 1 2
M  V30 2 1 1 3
M  V30 3 2 2 4
M  V30 4 1 2 5
M  V30 5 1 3 6
M  V30 6 1 4 7
M  V30 7 2 5 8
M  V30 8 1 6 9
M  V30 9 2 7 10
M  V30 10 1 9 11
M  V30 11 1 10 12
M  V30 12 1 12 13
M  V30 13 2 12 14
M  V30 14 2 13 15
M  V30 15 1 13 16
M  V30 16 1 14 17
M  V30 17 1 14 18
M  V30 18 1 15 19
M  V30 19 2 16 20
M  V30 20 2 17 21
M  V30 21 1 17 22
M  V30 22 1 18 23
M  V30 23 2 19 24
M  V30 24 1 21 25
M  V30 25 2 22 26
M  V30 26 2 25 27
M  V30 27 1 8 10
M  V30 28 1 20 24
M  V30 29 1 26 27
M  V30 END BOND
M  V30 END CTAB
M  END
>  <Molecule Name>
_c001

>  <status>
-

>  <cas>
31750-48-8

>  <name>
M TAMOXIFEN

>  <ID>
1707

>  <Smiles>
CC/C(/c1ccccc1)=C(\c1ccccc1)/c(cc1)ccc1OCCNC

$$$$
_c001
Actelion Java MolfileCreator 2.0

  0  0  0  0  0  0              0 V3000
M  V30 BEGIN CTAB
M  V30 COUNTS 24 26 0 0 0
M  V30 BEGIN ATOM
M  V30 1 S 11.2896 5.2019 0.0 0
M  V30 2 C 10.4079 3.9883 0.0 0
M  V30 3 C 12.7814 5.0451 0.0 0
M  V30 4 C 11.018 2.618 0.0 0
M  V30 5 C 8.9161 4.1451 0.0 0
M  V30 6 C 10.1363 1.4045 0.0 0
M  V30 7 C 8.0344 2.9316 0.0 0
M  V30 8 C 8.6445 1.5613 0.0 0
M  V30 9 C 7.7629 0.3478 0.0 0
M  V30 10 C 6.2711 0.5046 0.0 0
M  V30 11 C 5.5211 1.8036 0.0 0
M  V30 12 C 5.2674 -0.6101 0.0 0
M  V30 13 C 4.0539 1.4917 0.0 0
M  V30 14 C 5.9846 3.2302 0.0 0
M  V30 15 C 3.8971 0.0 0.0 0
M  V30 16 C 5.5793 -2.0773 0.0 0
M  V30 17 C 3.0502 2.6065 0.0 0
M  V30 18 C 4.9809 4.3449 0.0 0
M  V30 19 C 2.598 -0.75 0.0 0
M  V30 20 C 3.5137 4.033 0.0 0
M  V30 21 C 1.299 0.0 0.0 0
M  V30 22 F 2.51 5.1478 0.0 0
M  V30 23 O 1.299 1.5 0.0 0
M  V30 24 O 0.0 -0.75 0.0 0 CHG=-1
M  V30 END ATOM
M  V30 BEGIN BOND
M  V30 1 1 1 2
M  V30 2 1 1 3
M  V30 3 2 2 4
M  V30 4 1 2 5
M  V30 5 1 4 6
M  V30 6 2 5 7
M  V30 7 2 6 8
M  V30 8 1 8 9
M  V30 9 2 9 10
M  V30 10 1 10 11
M  V30 11 1 10 12
M  V30 12 2 11 13
M  V30 13 1 11 14
M  V30 14 2 12 15
M  V30 15 1 12 16
M  V30 16 1 13 17
M  V30 17 2 14 18
M  V30 18 1 15 19
M  V30 19 2 17 20
M  V30 20 1 19 21
M  V30 21 1 20 22
M  V30 22 2 21 23
M  V30 23 1 21 24
M  V30 24 1 7 8
M  V30 25 1 13 15
M  V30 26 1 18 20
M  V30 END BOND
M  V30 END CTAB
M  END
>  <Molecule Name>
_c001

>  <status>
-

>  <cas>
49627-27-2

>  <name>
M SULINDAC

>  <ID>
1708

>  <Smiles>
CC1=C(CC([O-])=O)c(cc(cc2)F)c2/C1=C\c(cc1)ccc1SC

$$$$
_c001
Actelion Java MolfileCreator 2.0

  0  0  0  0  0  0              0 V3000
M  V30 BEGIN CTAB
M  V30 COUNTS 19 21 0 0 0
M  V30 BEGIN ATOM
M  V30 1 Cl 0.866 0.0 0.0 0
M  V30 2 C 0.0 -0.5 0.0 0
M  V30 3 C -0.866 0.0 0.0 0
M  V30 4 C 0.0 -1.4999 0.0 0
M  V30 5 C -1.732 -0.4999 0.0 0
M  V30 6 C -0.866 -1.9999 0.0 0
M  V30 7 C -2.5138 0.1234 0.0 0
M  V30 8 C -1.732 -1.4999 0.0 0
M  V30 9 N -3.4888 -0.099 0.0 0
M  V30 10 C -2.2913 1.0984 0.0 0
M  V30 11 N -2.5138 -2.1234 0.0 0
M  V30 12 C -3.9226 -0.9999 0.0 0
M  V30 13 C -1.3357 1.3931 0.0 0
M  V30 14 C -3.0244 1.7785 0.0 0
M  V30 15 C -3.4888 -1.9009 0.0 0
M  V30 16 C -1.1132 2.3681 0.0 0
M  V30 17 C -2.8018 2.7535 0.0 0
M  V30 18 O -4.1123 -2.6828 0.0 0
M  V30 19 C -1.8463 3.0482 0.0 0
M  V30 END ATOM
M  V30 BEGIN BOND
M  V30 1 1 1 2
M  V30 2 2 2 3
M  V30 3 1 2 4
M  V30 4 1 3 5
M  V30 5 2 4 6
M  V30 6 1 5 7
M  V30 7 2 5 8
M  V30 8 2 7 9
M  V30 9 1 7 10
M  V30 10 1 8 11
M  V30 11 1 9 12
M  V30 12 2 10 13
M  V30 13 1 10 14
M  V30 14 1 11 15
M  V30 15 1 13 16
M  V30 16 2 14 17
M  V30 17 2 15 18
M  V30 18 2 16 19
M  V30 19 1 6 8
M  V30 20 1 12 15
M  V30 21 1 17 19
M  V30 END BOND
M  V30 END CTAB
M  END
>  <Molecule Name>
_c001

>  <status>
-

>  <cas>
1088-11-5

>  <name>
M DIAZEPAM

>  <ID>
1709

>  <Smiles>
O=C1Nc(ccc(Cl)c2)c2C(c2ccccc2)=NC1

$$$$
_c001
Actelion Java MolfileCreator 2.0

  0  0  0  0  0  0              0 V3000
M  V30 BEGIN CTAB
M  V30 COUNTS 36 40 0 0 0
M  V30 BEGIN ATOM
M  V30 1 F 6.0621 8.9999 0.0 0
M  V30 2 C 6.9282 8.4999 0.0 0
M  V30 3 C 6.9282 7.4999 0.0 0
M  V30 4 C 7.7942 8.9999 0.0 0
M  V30 5 C 7.7942 7.0 0.0 0
M  V30 6 C 8.6602 8.5 0.0 0
M  V30 7 C 7.7942 5.9999 0.0 0
M  V30 8 C 8.6602 7.5 0.0 0
M  V30 9 C 6.9282 5.4999 0.0 0
M  V30 10 C 8.6602 5.4999 0.0 0
M  V30 11 N 6.9282 4.4999 0.0 0
M  V30 12 C 8.6602 4.5 0.0 0
M  V30 13 C 7.7942 3.9999 0.0 0
M  V30 14 C 7.7942 2.9999 0.0 0
M  V30 15 C 6.9282 2.4999 0.0 0
M  V30 16 C 6.9282 1.4999 0.0 0 CFG=2
M  V30 17 C 6.0621 0.9999 0.0 0 CFG=2
M  V30 18 C 7.7942 0.9999 0.0 0 CFG=2
M  V30 19 C 6.0621 0.0 0.0 0 CFG=2
M  V30 20 C 5.1961 1.4999 0.0 0
M  V30 21 C 7.7942 0.0 0.0 0 CFG=2
M  V30 22 C 8.7452 1.309 0.0 0 CFG=1
M  V30 23 C 5.1961 -0.5 0.0 0
M  V30 24 C 6.9282 -0.5 0.0 0
M  V30 25 C 4.3301 0.9999 0.0 0
M  V30 26 C 8.7452 -0.309 0.0 0
M  V30 27 O 9.333 0.4999 0.0 0
M  V30 28 C 9.0543 2.26 0.0 0
M  V30 29 C 4.3301 0.0 0.0 0 CFG=2
M  V30 30 O 9.0543 -1.26 0.0 0
M  V30 31 N 3.4641 -0.5 0.0 0
M  V30 32 C 2.598 0.0 0.0 0
M  V30 33 O 2.598 1.0 0.0 0
M  V30 34 O 1.732 -0.5 0.0 0
M  V30 35 C 0.866 0.0 0.0 0
M  V30 36 C 0.0 -0.5 0.0 0
M  V30 END ATOM
M  V30 BEGIN BOND
M  V30 1 1 1 2
M  V30 2 2 2 3
M  V30 3 1 2 4
M  V30 4 1 3 5
M  V30 5 2 4 6
M  V30 6 1 5 7
M  V30 7 2 5 8
M  V30 8 2 7 9
M  V30 9 1 7 10
M  V30 10 1 9 11
M  V30 11 2 10 12
M  V30 12 2 11 13
M  V30 13 1 13 14
M  V30 14 2 14 15
M  V30 15 1 16 15 CFG=1
M  V30 16 1 17 16
M  V30 17 1 18 16 CFG=1
M  V30 18 1 19 17
M  V30 19 1 17 20 CFG=3
M  V30 20 1 21 18
M  V30 21 1 22 18
M  V30 22 1 19 23 CFG=1
M  V30 23 1 19 24
M  V30 24 1 20 25
M  V30 25 1 21 26
M  V30 26 1 22 27
M  V30 27 1 22 28 CFG=3
M  V30 28 1 29 23
M  V30 29 2 26 30
M  V30 30 1 29 31 CFG=1
M  V30 31 1 31 32
M  V30 32 2 32 33
M  V30 33 1 32 34
M  V30 34 1 34 35
M  V30 35 1 35 36
M  V30 36 1 6 8
M  V30 37 1 12 13
M  V30 38 1 21 24 CFG=1
M  V30 39 1 25 29
M  V30 40 1 26 27
M  V30 END BOND
M  V30 BEGIN COLLECTION
M  V30 MDLV30/STERAC1 ATOMS=(7 16 17 18 19 21 22 29)
M  V30 END COLLECTION
M  V30 END CTAB
M  END
>  <Molecule Name>
_c001

>  <status>
-

>  <cas>
618385-01-6

>  <name>
VORAPAXAR

>  <ID>
1710

>  <Smiles>
CCOC(N[C@@H](CC1)C[C@H](C[C@@H]([C@@H]2[C@H](C)O3)C3=O)[C@H]1[C@H]2/C=C/c(cc1)ncc1-c1cccc(F)c1)=O

$$$$
_c001
Actelion Java MolfileCreator 2.0

  0  0  0  0  0  0              0 V3000
M  V30 BEGIN CTAB
M  V30 COUNTS 128 140 0 0 0
M  V30 BEGIN ATOM
M  V30 1 Cl 5.9387 -0.6845 0.0 0
M  V30 2 C 4.9147 -0.3608 0.0 0
M  V30 3 C 4.7377 0.5635 0.0 0
M  V30 4 C 4.2574 -1.1005 0.0 0
M  V30 5 O 5.3532 1.0748 0.0 0
M  V30 6 C 3.777 0.8409 0.0 0
M  V30 7 C 3.2966 -0.8231 0.0 0
M  V30 8 C 4.4975 -2.0712 0.0 0 CFG=1
M  V30 9 C 3.0564 0.1475 0.0 0
M  V30 10 N 3.777 -2.7646 0.0 0
M  V30 11 C 5.1961 -1.4999 0.0 0
M  V30 12 O 2.0956 0.4248 0.0 0
M  V30 13 C 4.0172 -3.7353 0.0 0
M  V30 14 O 6.0997 -1.9283 0.0 0
M  V30 15 N 5.255 -0.6097 0.0 0
M  V30 16 C 1.375 -0.2684 0.0 0
M  V30 17 O 4.8374 -4.0208 0.0 0
M  V30 18 C 3.2966 -4.4287 0.0 0 CFG=1
M  V30 19 C 6.0621 0.0 0.0 0 CFG=2
M  V30 20 C 0.4143 0.0088 0.0 0
M  V30 21 C 1.6152 -1.2392 0.0 0
M  V30 22 N 2.3358 -4.1513 0.0 0
M  V30 23 C 4.3301 -5.0 0.0 0
M  V30 24 C 6.0621 1.0 0.0 0
M  V30 25 C 6.9282 -0.4999 0.0 0
M  V30 26 O 0.1741 0.9795 0.0 0
M  V30 27 C -0.3062 -0.6845 0.0 0
M  V30 28 C 0.8947 -1.9325 0.0 0
M  V30 29 C 2.0956 -3.1806 0.0 0
M  V30 30 C 5.1961 -4.5 0.0 0
M  V30 31 O 5.188 1.5219 0.0 0
M  V30 32 N 6.9282 1.5 0.0 0
M  V30 33 C 7.7942 0.0 0.0 0
M  V30 34 C 6.9282 -1.4999 0.0 0
M  V30 35 C -0.066 -1.6552 0.0 0
M  V30 36 C 1.1349 -2.9033 0.0 0 CFG=1
M  V30 37 O 2.8162 -2.4872 0.0 0
M  V30 38 C 6.0621 -5.0 0.0 0
M  V30 39 C 5.1961 -3.4999 0.0 0
M  V30 40 C 6.9282 2.5 0.0 0 CFG=2
M  V30 41 C 8.6602 -0.4999 0.0 0
M  V30 42 C 7.7942 -1.9999 0.0 0
M  V30 43 N 0.4143 -3.5966 0.0 0
M  V30 44 C 6.9282 -4.5 0.0 0
M  V30 45 C 6.0621 -3.0 0.0 0
M  V30 46 C 7.7942 3.0 0.0 0
M  V30 47 C 6.0621 3.0 0.0 0
M  V30 48 O 9.5262 0.0 0.0 0
M  V30 49 C 8.6602 -1.4999 0.0 0
M  V30 50 O 7.7942 -2.9999 0.0 0
M  V30 51 C 0.6545 -4.5674 0.0 0
M  V30 52 C 6.9282 -3.5 0.0 0
M  V30 53 O 8.6602 2.5 0.0 0
M  V30 54 N 7.6844 3.7942 0.0 0
M  V30 55 C 5.9486 3.9267 0.0 0
M  V30 56 C 5.1961 2.5 0.0 0
M  V30 57 C 10.3772 0.9754 0.0 0
M  V30 58 O 9.5262 -1.9999 0.0 0
M  V30 59 C 8.6602 4.5 0.0 0 CFG=1
M  V30 60 C 5.1959 4.3769 0.0 0
M  V30 61 C 4.3301 3.0 0.0 0
M  V30 62 C 9.5262 1.5 0.0 0
M  V30 63 C 11.2591 1.5297 0.0 0
M  V30 64 C 10.3923 -1.4999 0.0 0 CFG=1
M  V30 65 C 8.6602 5.5 0.0 0
M  V30 66 C 9.5262 4.0 0.0 0 CFG=1
M  V30 67 C 5.1961 5.5 0.0 0
M  V30 68 C 4.3175 3.8676 0.0 0
M  V30 69 Cl 8.6602 1.0 0.0 0
M  V30 70 C 9.5262 2.5 0.0 0
M  V30 71 C 11.2583 2.5 0.0 0
M  V30 72 O 10.3923 -0.4999 0.0 0
M  V30 73 C 11.2583 -1.9999 0.0 0 CFG=1
M  V30 74 O 9.5262 5.9999 0.0 0
M  V30 75 N 7.7942 6.0 0.0 0
M  V30 76 O 10.163 4.771 0.0 0
M  V30 77 C 10.3923 3.0 0.0 0
M  V30 78 C 4.3301 6.0 0.0 0
M  V30 79 C 6.0621 6.0 0.0 0
M  V30 80 O 3.4627 4.2879 0.0 0
M  V30 81 C 11.2583 0.0 0.0 0 CFG=1
M  V30 82 N 11.2583 -2.9999 0.0 0
M  V30 83 C 12.1243 -1.4999 0.0 0 CFG=1
M  V30 84 C 6.9282 5.5 0.0 0 CFG=2
M  V30 85 O 3.4641 5.5 0.0 0
M  V30 86 C 4.3301 7.0 0.0 0
M  V30 87 C 6.0621 7.0 0.0 0
M  V30 88 C 11.2709 0.9793 0.0 0
M  V30 89 C 12.1243 -0.4999 0.0 0 CFG=1
M  V30 90 C 10.3923 -3.4999 0.0 0
M  V30 91 O 12.9903 -1.9999 0.0 0
M  V30 92 C 6.9282 4.5 0.0 0
M  V30 93 C 2.598 5.9999 0.0 0 CFG=2
M  V30 94 C 5.1961 7.5 0.0 0
M  V30 95 O 10.3923 1.5193 0.0 0
M  V30 96 O 12.1243 1.5 0.0 0 CHG=-1
M  V30 97 O 12.9903 0.0 0.0 0
M  V30 98 O 9.5262 -2.9999 0.0 0
M  V30 99 C 10.3923 -4.4999 0.0 0
M  V30 100 O 7.9221 3.9698 0.0 0
M  V30 101 N 6.3121 4.0 0.0 0
M  V30 102 O 1.732 5.4999 0.0 0
M  V30 103 C 2.598 6.9999 0.0 0 CFG=2
M  V30 104 O 5.1961 8.5 0.0 0
M  V30 105 C 11.2583 -5.0 0.0 0
M  V30 106 C 5.2425 4.7456 0.0 0
M  V30 107 C 0.866 5.9999 0.0 0 CFG=2
M  V30 108 O 3.4641 7.5 0.0 0
M  V30 109 C 1.732 7.4999 0.0 0 CFG=1
M  V30 110 C 12.1243 -4.5 0.0 0
M  V30 111 C 4.3523 4.2331 0.0 0
M  V30 112 C 0.866 6.9999 0.0 0 CFG=1
M  V30 113 C 0.0 5.4999 0.0 0
M  V30 114 O 1.732 8.4999 0.0 0
M  V30 115 C 12.9903 -5.0 0.0 0
M  V30 116 C 3.465 4.6439 0.0 0
M  V30 117 O 0.0 7.4999 0.0 0
M  V30 118 O -0.866 5.9999 0.0 0
M  V30 119 C 12.9903 -6.0 0.0 0
M  V30 120 N 2.598 4.0 0.0 0
M  V30 121 C 12.1243 -6.5 0.0 0
M  V30 122 C 2.598 3.0 0.0 0
M  V30 123 C 1.732 4.5 0.0 0
M  V30 124 C 12.1243 -7.5 0.0 0
M  V30 125 C 11.2583 -7.9999 0.0 0
M  V30 126 C 11.2583 -8.9999 0.0 0
M  V30 127 C 12.1243 -9.4999 0.0 0
M  V30 128 C 10.3923 -9.4999 0.0 0
M  V30 END ATOM
M  V30 BEGIN BOND
M  V30 1 1 1 2
M  V30 2 2 2 3
M  V30 3 1 2 4
M  V30 4 1 3 5
M  V30 5 1 3 6
M  V30 6 2 4 7
M  V30 7 1 8 4
M  V30 8 2 6 9
M  V30 9 1 8 10 CFG=3
M  V30 10 1 8 11
M  V30 11 1 9 12
M  V30 12 1 10 13
M  V30 13 2 11 14
M  V30 14 1 11 15
M  V30 15 1 12 16
M  V30 16 2 13 17
M  V30 17 1 18 13
M  V30 18 1 19 15 CFG=3
M  V30 19 2 16 20
M  V30 20 1 16 21
M  V30 21 1 18 22 CFG=3
M  V30 22 1 18 23
M  V30 23 1 19 24
M  V30 24 1 19 25
M  V30 25 1 20 26
M  V30 26 1 20 27
M  V30 27 2 21 28
M  V30 28 1 22 29
M  V30 29 1 23 30
M  V30 30 2 24 31
M  V30 31 1 24 32
M  V30 32 2 25 33
M  V30 33 1 25 34
M  V30 34 2 27 35
M  V30 35 1 36 28
M  V30 36 2 29 37
M  V30 37 2 30 38
M  V30 38 1 30 39
M  V30 39 1 40 32 CFG=1
M  V30 40 1 33 41
M  V30 41 2 34 42
M  V30 42 1 36 43 CFG=1
M  V30 43 1 38 44
M  V30 44 2 39 45
M  V30 45 1 40 46
M  V30 46 1 40 47
M  V30 47 1 41 48
M  V30 48 2 41 49
M  V30 49 1 42 50
M  V30 50 1 43 51
M  V30 51 2 44 52
M  V30 52 2 46 53
M  V30 53 1 46 54
M  V30 54 2 47 55
M  V30 55 1 47 56
M  V30 56 1 48 57
M  V30 57 1 49 58
M  V30 58 1 59 54 CFG=1
M  V30 59 1 60 55 CFG=3
M  V30 60 2 56 61
M  V30 61 2 57 62
M  V30 62 1 57 63
M  V30 63 1 64 58 CFG=1
M  V30 64 1 59 65
M  V30 65 1 66 59
M  V30 66 1 60 67
M  V30 67 2 60 68
M  V30 68 1 62 69
M  V30 69 1 62 70
M  V30 70 2 63 71
M  V30 71 1 64 72
M  V30 72 1 73 64
M  V30 73 2 65 74
M  V30 74 1 65 75
M  V30 75 1 66 76 CFG=1
M  V30 76 1 66 77
M  V30 77 2 67 78
M  V30 78 1 67 79
M  V30 79 1 68 80
M  V30 80 1 81 72
M  V30 81 1 73 82 CFG=3
M  V30 82 1 83 73
M  V30 83 1 84 75
M  V30 84 1 78 85
M  V30 85 1 78 86
M  V30 86 2 79 87
M  V30 87 1 81 88 CFG=1
M  V30 88 1 89 81
M  V30 89 1 82 90
M  V30 90 1 83 91 CFG=1
M  V30 91 1 84 92 CFG=1
M  V30 92 1 93 85 CFG=3
M  V30 93 2 86 94
M  V30 94 2 88 95
M  V30 95 1 88 96
M  V30 96 1 89 97 CFG=3
M  V30 97 2 90 98
M  V30 98 1 90 99
M  V30 99 2 92 100
M  V30 100 1 92 101
M  V30 101 1 93 102
M  V30 102 1 103 93
M  V30 103 1 94 104
M  V30 104 1 99 105
M  V30 105 1 101 106
M  V30 106 1 107 102
M  V30 107 1 103 108 CFG=1
M  V30 108 1 109 103
M  V30 109 1 105 110
M  V30 110 1 106 111
M  V30 111 1 112 107
M  V30 112 1 107 113 CFG=1
M  V30 113 1 109 114 CFG=1
M  V30 114 1 110 115
M  V30 115 1 111 116
M  V30 116 1 112 117 CFG=3
M  V30 117 1 113 118
M  V30 118 1 115 119
M  V30 119 1 116 120
M  V30 120 1 119 121
M  V30 121 1 120 122
M  V30 122 1 120 123
M  V30 123 1 121 124
M  V30 124 1 124 125
M  V30 125 1 125 126
M  V30 126 1 126 127
M  V30 127 1 126 128
M  V30 128 1 7 9
M  V30 129 1 28 35
M  V30 130 1 29 36
M  V30 131 1 42 49
M  V30 132 1 45 52
M  V30 133 1 50 52
M  V30 134 1 61 68
M  V30 135 2 70 77
M  V30 136 1 71 77
M  V30 137 1 79 84
M  V30 138 1 83 89
M  V30 139 1 87 94
M  V30 140 1 109 112
M  V30 END BOND
M  V30 BEGIN COLLECTION
M  V30 MDLV30/STEABS BONDS=(1 66)
M  V30 MDLV30/STERAC1 ATOMS=(18 8 18 19 36 40 59 64 66 73 81 83 84 89 93 103 107 109 112)
M  V30 END COLLECTION
M  V30 END CTAB
M  END
>  <Molecule Name>
_c001

>  <status>
-

>  <cas>
171500-79-1

>  <name>
DALBAVANCIN

>  <ID>
1711

>  <Smiles>
CC(C)CCCCCCCCC(N[C@@H]([C@@H]([C@H]1O)O)[C@@H](Oc(c(Oc2ccc(C[C@@H](C(N[C@H](c3cc(Oc(cc([C@@H]4NC)cc5)c5O)cc(O)c3Cl)C(N[C@@H]3C(N[C@@H](c(cc5)cc(-c(c([C@H](C(NCCCN(C)C)=O)NC([C@@H]([C@H](c(cc6)c7)O)N8)=O)cc(O)c9)c9O[C@@H]([C@@H]([C@@H]9O)O)O[C@@H](CO)[C@@H]9O)c5O)C8=O)=O)=O)=O)NC4=O)cc2)cc3c2)c2Oc6c7Cl)O[C@H]1C([O-])=O)=O

$$$$
_c001
Actelion Java MolfileCreator 2.0

  0  0  0  0  0  0              0 V3000
M  V30 BEGIN CTAB
M  V30 COUNTS 25 27 0 0 0
M  V30 BEGIN ATOM
M  V30 1 F 0.0 -1.4999 0.0 0
M  V30 2 C 0.866 -1.9999 0.0 0
M  V30 3 C 1.732 -1.5 0.0 0
M  V30 4 C 0.866 -2.9999 0.0 0
M  V30 5 C 2.598 -2.0 0.0 0
M  V30 6 C 1.732 -0.5 0.0 0 CFG=1
M  V30 7 C 1.732 -3.5 0.0 0
M  V30 8 C 2.598 -3.0 0.0 0
M  V30 9 O 2.598 -0.9999 0.0 0
M  V30 10 C 2.598 0.0 0.0 0 CFG=2
M  V30 11 C 0.866 0.0 0.0 0
M  V30 12 F 1.732 -4.5 0.0 0
M  V30 13 N 3.4641 -0.5 0.0 0
M  V30 14 C 2.598 1.0 0.0 0
M  V30 15 N 0.866 0.9999 0.0 0
M  V30 16 C 3.4641 -1.5 0.0 0
M  V30 17 C 4.3301 0.0 0.0 0
M  V30 18 N 0.057 1.5877 0.0 0
M  V30 19 C 1.675 1.5877 0.0 0
M  V30 20 C 4.3301 -2.0 0.0 0
M  V30 21 C 5.1961 -0.5 0.0 0
M  V30 22 C 0.366 2.5388 0.0 0
M  V30 23 N 1.366 2.5388 0.0 0
M  V30 24 C 5.1961 -1.5 0.0 0
M  V30 25 C 6.0621 -2.0 0.0 0
M  V30 END ATOM
M  V30 BEGIN BOND
M  V30 1 1 1 2
M  V30 2 2 2 3
M  V30 3 1 2 4
M  V30 4 1 3 5
M  V30 5 1 6 3
M  V30 6 2 4 7
M  V30 7 2 5 8
M  V30 8 1 6 9 CFG=1
M  V30 9 1 10 6
M  V30 10 1 6 11
M  V30 11 1 7 12
M  V30 12 1 10 13 CFG=1
M  V30 13 1 10 14
M  V30 14 1 11 15
M  V30 15 1 13 16
M  V30 16 1 13 17
M  V30 17 1 15 18
M  V30 18 1 15 19
M  V30 19 1 16 20
M  V30 20 1 17 21
M  V30 21 2 18 22
M  V30 22 2 19 23
M  V30 23 1 20 24
M  V30 24 2 24 25
M  V30 25 1 7 8
M  V30 26 1 21 24
M  V30 27 1 22 23
M  V30 END BOND
M  V30 BEGIN COLLECTION
M  V30 MDLV30/STERAC1 ATOMS=(2 6 10)
M  V30 END COLLECTION
M  V30 END CTAB
M  END
>  <Molecule Name>
_c001

>  <status>
-

>  <cas>
164650-44-6

>  <name>
EFINACONAZOLE

>  <ID>
1712

>  <Smiles>
C[C@H]([C@@](Cn1ncnc1)(c(ccc(F)c1)c1F)O)N(CC1)CCC1=C

$$$$
_c001
Actelion Java MolfileCreator 2.0

  0  0  0  0  0  0              0 V3000
M  V30 BEGIN CTAB
M  V30 COUNTS 11 12 0 0 0
M  V30 BEGIN ATOM
M  V30 1 F 1.8976 3.8476 0.0 0
M  V30 2 C 1.5885 2.8966 0.0 0
M  V30 3 C 2.2577 2.1534 0.0 0
M  V30 4 C 0.6104 2.6887 0.0 0
M  V30 5 C 1.9487 1.2024 0.0 0
M  V30 6 C 0.3014 1.7376 0.0 0
M  V30 7 C 0.9705 0.9945 0.0 0
M  V30 8 C 2.4487 0.3364 0.0 0
M  V30 9 B 0.866 0.0 0.0 0
M  V30 10 O 1.7795 -0.4067 0.0 0
M  V30 11 O 0.0 -0.5 0.0 0
M  V30 END ATOM
M  V30 BEGIN BOND
M  V30 1 1 1 2
M  V30 2 2 2 3
M  V30 3 1 2 4
M  V30 4 1 3 5
M  V30 5 2 4 6
M  V30 6 2 5 7
M  V30 7 1 5 8
M  V30 8 1 7 9
M  V30 9 1 8 10
M  V30 10 1 9 11
M  V30 11 1 6 7
M  V30 12 1 9 10
M  V30 END BOND
M  V30 END CTAB
M  END
>  <Molecule Name>
_c001

>  <status>
-

>  <cas>
174671-46-6

>  <name>
TAVABOROLE

>  <ID>
1713

>  <Smiles>
OB1OCc2c1ccc(F)c2

$$$$
_c001
Actelion Java MolfileCreator 2.0

  0  0  0  0  0  0              0 V3000
M  V30 BEGIN CTAB
M  V30 COUNTS 125 137 0 0 0
M  V30 BEGIN ATOM
M  V30 1 Cl 12.3625 -3.3809 0.0 0
M  V30 2 C 12.3625 -1.8782 0.0 0
M  V30 3 C 13.6638 -1.1269 0.0 0
M  V30 4 C 11.0611 -1.1269 0.0 0
M  V30 5 O 14.3144 -3.0052 0.0 0
M  V30 6 C 13.6321 0.3745 0.0 0
M  V30 7 C 11.0611 0.3756 0.0 0
M  V30 8 C 14.3144 -4.5078 0.0 0
M  V30 9 C 12.3625 1.1269 0.0 0
M  V30 10 C 9.1092 0.0 0.0 0 CFG=1
M  V30 11 C 15.6157 -5.2592 0.0 0
M  V30 12 C 13.0131 -5.2592 0.0 0
M  V30 13 O 8.5842 1.4079 0.0 0
M  V30 14 C 7.8078 -0.7513 0.0 0 CFG=1
M  V30 15 O 16.9171 -4.5078 0.0 0
M  V30 16 C 15.6157 -6.7618 0.0 0
M  V30 17 C 13.0131 -6.7618 0.0 0
M  V30 18 N 6.5065 0.0 0.0 0
M  V30 19 C 7.8078 -2.2539 0.0 0
M  V30 20 C 16.9171 -3.0052 0.0 0 CFG=2
M  V30 21 O 16.9171 -7.5131 0.0 0
M  V30 22 C 14.3144 -7.5131 0.0 0
M  V30 23 C 11.7118 -7.5131 0.0 0 CFG=1
M  V30 24 C 5.2052 -0.7513 0.0 0
M  V30 25 O 6.5065 -3.0052 0.0 0
M  V30 26 N 9.1092 -3.0052 0.0 0
M  V30 27 O 15.6157 -2.2539 0.0 0
M  V30 28 C 18.2184 -2.2539 0.0 0 CFG=2
M  V30 29 C 16.9171 -9.0157 0.0 0
M  V30 30 N 10.4105 -6.7618 0.0 0
M  V30 31 C 11.7118 -9.0157 0.0 0
M  V30 32 O 5.2052 -2.2539 0.0 0
M  V30 33 C 3.9039 0.0 0.0 0 CFG=2
M  V30 34 C 9.1092 -4.5078 0.0 0 CFG=2
M  V30 35 C 15.6157 -0.7513 0.0 0 CFG=1
M  V30 36 O 19.5197 -3.0052 0.0 0
M  V30 37 C 18.2184 -0.7513 0.0 0 CFG=2
M  V30 38 C 18.2184 -9.767 0.0 0
M  V30 39 C 15.6157 -9.767 0.0 0
M  V30 40 C 10.4105 -5.2592 0.0 0
M  V30 41 O 10.4105 -9.767 0.0 0
M  V30 42 N 13.0131 -9.767 0.0 0
M  V30 43 N 3.9039 1.5026 0.0 0
M  V30 44 C 2.6026 -0.7513 0.0 0
M  V30 45 C 7.8078 -5.2592 0.0 0
M  V30 46 C 16.9171 0.0 0.0 0 CFG=2
M  V30 47 C 14.3648 0.0 0.0 0
M  V30 48 C 20.821 -2.2539 0.0 0 CFG=2
M  V30 49 O 19.5197 0.0 0.0 0
M  V30 50 Cl 19.5197 -9.0157 0.0 0
M  V30 51 C 18.2184 -11.2697 0.0 0
M  V30 52 C 15.7837 -11.1857 0.0 0
M  V30 53 O 11.7118 -4.5078 0.0 0
M  V30 54 C 13.0131 -11.2697 0.0 0 CFG=1
M  V30 55 C 2.6026 2.2539 0.0 0
M  V30 56 C 1.3013 0.0 0.0 0
M  V30 57 C 7.8078 -6.7618 0.0 0
M  V30 58 O 16.9171 1.5026 0.0 0
M  V30 59 O 14.3144 1.5026 0.0 0
M  V30 60 O 20.821 -0.7513 0.0 0
M  V30 61 C 22.1223 -3.0052 0.0 0
M  V30 62 C 16.9171 -12.021 0.0 0
M  V30 63 C 14.3144 -12.021 0.0 0
M  V30 64 C 11.7118 -12.021 0.0 0
M  V30 65 C 1.3013 1.5026 0.0 0
M  V30 66 C 0.0 -0.7513 0.0 0
M  V30 67 O 9.1092 -7.5131 0.0 0
M  V30 68 N 6.5065 -7.5131 0.0 0
M  V30 69 C 22.1223 0.0 0.0 0 CFG=2
M  V30 70 C 23.4236 -2.2539 0.0 0 CFG=1
M  V30 71 C 16.9171 -13.5236 0.0 0 CFG=1
M  V30 72 O 15.2797 -11.4377 0.0 0
M  V30 73 N 14.3912 -13.2932 0.0 0
M  V30 74 C 11.5241 -13.5679 0.0 0
M  V30 75 C 10.4105 -11.2697 0.0 0
M  V30 76 C 23.4236 -0.7513 0.0 0 CFG=1
M  V30 77 C 22.1223 1.5026 0.0 0
M  V30 78 N 24.725 -3.0052 0.0 0
M  V30 79 C 24.725 -1.5026 0.0 0
M  V30 80 O 18.2184 -14.2749 0.0 0
M  V30 81 C 15.6157 -14.2749 0.0 0 CFG=2
M  V30 82 C 10.4105 -14.2749 0.0 0
M  V30 83 C 9.1092 -12.021 0.0 0
M  V30 84 O 24.725 0.0 0.0 0
M  V30 85 C 24.725 -4.5078 0.0 0
M  V30 86 C 19.5197 -13.5236 0.0 0 CFG=2
M  V30 87 C 15.6157 -15.7776 0.0 0
M  V30 88 C 10.4105 -15.7776 0.0 0
M  V30 89 C 9.1092 -13.5236 0.0 0
M  V30 90 C 26.0263 -5.2592 0.0 0
M  V30 91 O 19.5197 -12.021 0.0 0
M  V30 92 C 20.821 -14.2749 0.0 0
M  V30 93 O 16.9171 -16.5289 0.0 0
M  V30 94 N 14.3144 -16.5289 0.0 0
M  V30 95 C 9.1092 -16.5289 0.0 0
M  V30 96 C 11.7118 -16.5289 0.0 0
M  V30 97 O 7.8078 -14.2749 0.0 0
M  V30 98 C 26.0263 -6.7618 0.0 0
M  V30 99 C 27.3276 -4.5078 0.0 0
M  V30 100 C 20.821 -11.2697 0.0 0 CFG=2
M  V30 101 C 22.1223 -13.5236 0.0 0 CFG=1
M  V30 102 C 13.0131 -15.7776 0.0 0 CFG=1
M  V30 103 O 7.8078 -15.7776 0.0 0
M  V30 104 C 9.1092 -18.0315 0.0 0
M  V30 105 C 11.7118 -18.0315 0.0 0
M  V30 106 C 27.3276 -7.5131 0.0 0
M  V30 107 C 28.6289 -5.2592 0.0 0
M  V30 108 C 22.1223 -12.021 0.0 0 CFG=1
M  V30 109 C 20.821 -9.767 0.0 0
M  V30 110 N 23.6249 -13.5236 0.0 0
M  V30 111 C 22.8736 -14.8249 0.0 0
M  V30 112 C 13.0131 -14.2749 0.0 0
M  V30 113 C 10.4105 -18.7828 0.0 0
M  V30 114 C 28.6289 -6.7618 0.0 0
M  V30 115 O 23.4236 -11.2697 0.0 0
M  V30 116 O 14.2304 -13.7756 0.0 0
M  V30 117 O 12.0676 -13.4396 0.0 0 CHG=-1
M  V30 118 O 10.4105 -20.2855 0.0 0
M  V30 119 C 29.9302 -7.5131 0.0 0
M  V30 120 C 29.9302 -9.0157 0.0 0
M  V30 121 C 31.2315 -6.7618 0.0 0
M  V30 122 C 31.2315 -9.767 0.0 0
M  V30 123 C 32.5329 -7.5131 0.0 0
M  V30 124 C 32.5329 -9.0157 0.0 0
M  V30 125 Cl 33.8342 -9.767 0.0 0
M  V30 END ATOM
M  V30 BEGIN BOND
M  V30 1 1 1 2
M  V30 2 2 2 3
M  V30 3 1 2 4
M  V30 4 1 3 5
M  V30 5 1 3 6
M  V30 6 2 4 7
M  V30 7 1 5 8
M  V30 8 2 6 9
M  V30 9 1 10 7
M  V30 10 2 8 11
M  V30 11 1 8 12
M  V30 12 1 10 13 CFG=3
M  V30 13 1 14 10
M  V30 14 1 11 15
M  V30 15 1 11 16
M  V30 16 2 12 17
M  V30 17 1 14 18 CFG=3
M  V30 18 1 14 19
M  V30 19 1 20 15 CFG=3
M  V30 20 1 16 21
M  V30 21 2 16 22
M  V30 22 1 23 17
M  V30 23 1 18 24
M  V30 24 2 19 25
M  V30 25 1 19 26
M  V30 26 1 20 27
M  V30 27 1 28 20
M  V30 28 1 21 29
M  V30 29 1 23 30 CFG=3
M  V30 30 1 23 31
M  V30 31 2 24 32
M  V30 32 1 33 24
M  V30 33 1 34 26
M  V30 34 1 35 27
M  V30 35 1 28 36 CFG=1
M  V30 36 1 37 28
M  V30 37 2 29 38
M  V30 38 1 29 39
M  V30 39 1 30 40
M  V30 40 2 31 41
M  V30 41 1 31 42
M  V30 42 1 33 43 CFG=1
M  V30 43 1 33 44
M  V30 44 1 34 45 CFG=3
M  V30 45 1 46 35
M  V30 46 1 35 47 CFG=3
M  V30 47 1 48 36 CFG=3
M  V30 48 1 37 49 CFG=3
M  V30 49 1 38 50
M  V30 50 1 38 51
M  V30 51 2 39 52
M  V30 52 2 40 53
M  V30 53 1 54 42 CFG=1
M  V30 54 1 43 55
M  V30 55 1 44 56
M  V30 56 1 45 57
M  V30 57 1 46 58 CFG=1
M  V30 58 1 47 59
M  V30 59 1 48 60
M  V30 60 1 48 61
M  V30 61 2 51 62
M  V30 62 1 54 63
M  V30 63 1 54 64
M  V30 64 1 56 65
M  V30 65 1 56 66
M  V30 66 2 57 67
M  V30 67 1 57 68
M  V30 68 1 69 60
M  V30 69 1 70 61
M  V30 70 1 71 62
M  V30 71 2 63 72
M  V30 72 1 63 73
M  V30 73 2 64 74
M  V30 74 1 64 75
M  V30 75 1 76 69
M  V30 76 1 69 77 CFG=1
M  V30 77 1 70 78
M  V30 78 1 70 79 CFG=3
M  V30 79 1 71 80 CFG=1
M  V30 80 1 81 71
M  V30 81 1 82 74 CFG=1
M  V30 82 2 75 83
M  V30 83 1 76 84 CFG=3
M  V30 84 1 78 85
M  V30 85 1 86 80 CFG=3
M  V30 86 1 81 87
M  V30 87 1 82 88
M  V30 88 2 82 89
M  V30 89 1 85 90
M  V30 90 1 86 91
M  V30 91 1 86 92
M  V30 92 2 87 93
M  V30 93 1 87 94
M  V30 94 2 88 95
M  V30 95 1 88 96
M  V30 96 1 89 97
M  V30 97 2 90 98
M  V30 98 1 90 99
M  V30 99 1 100 91
M  V30 100 1 101 92
M  V30 101 1 102 94
M  V30 102 1 95 103
M  V30 103 1 95 104
M  V30 104 2 96 105
M  V30 105 1 98 106
M  V30 106 2 99 107
M  V30 107 1 108 100
M  V30 108 1 100 109 CFG=1
M  V30 109 1 101 110 CFG=1
M  V30 110 1 101 111
M  V30 111 1 102 112 CFG=1
M  V30 112 2 104 113
M  V30 113 2 106 114
M  V30 114 1 108 115 CFG=3
M  V30 115 2 112 116
M  V30 116 1 112 117
M  V30 117 1 113 118
M  V30 118 1 114 119
M  V30 119 2 119 120
M  V30 120 1 119 121
M  V30 121 1 120 122
M  V30 122 2 121 123
M  V30 123 2 122 124
M  V30 124 1 124 125
M  V30 125 1 7 9
M  V30 126 1 17 22
M  V30 127 1 34 40
M  V30 128 1 37 46
M  V30 129 1 52 62
M  V30 130 1 70 76
M  V30 131 1 81 73 CFG=1
M  V30 132 1 83 89
M  V30 133 1 96 102
M  V30 134 1 101 108
M  V30 135 1 105 113
M  V30 136 1 107 114
M  V30 137 1 123 124
M  V30 END BOND
M  V30 BEGIN COLLECTION
M  V30 MDLV30/STEABS BONDS=(1 87)
M  V30 MDLV30/STERAC1 ATOMS=(22 10 14 20 23 28 33 34 35 37 46 48 54 69 70 71 76 81 86 100 101 102 108)
M  V30 END COLLECTION
M  V30 END CTAB
M  END
>  <Molecule Name>
_c001

>  <status>
-

>  <cas>
171099-57-3

>  <name>
ORITAVANCIN

>  <ID>
1714

>  <Smiles>
CC(C)C[C@H](C(N[C@H]([C@@H](c(cc1)cc(Cl)c1Oc(cc([C@H](C(N[C@H](c(cc1)cc(-c(c([C@@H](C([O-])=O)NC([C@H]([C@@H](c(cc2)c3)O[C@@H](C[C@]4(C)N)O[C@@H](C)[C@@H]4O)N4)=O)cc(O)c5)c5O)c1O)C4=O)=O)NC([C@H](CC(N)=O)N1)=O)cc4Oc2c3Cl)c4O[C@@H]([C@@H]([C@H]2O)O[C@@H](C[C@]3(C)NCc(cc4)ccc4-c(cc4)ccc4Cl)O[C@@H](C)[C@@H]3O)O[C@H](CO)[C@H]2O)O)C1=O)=O)NC

$$$$
_c001
Actelion Java MolfileCreator 2.0

  0  0  0  0  0  0              0 V3000
M  V30 BEGIN CTAB
M  V30 COUNTS 32 34 0 0 0
M  V30 BEGIN ATOM
M  V30 1 S 0.2616 4.3147 0.0 0
M  V30 2 O -0.6043 3.8147 0.0 0
M  V30 3 O 1.1276 4.8147 0.0 0
M  V30 4 C 0.7616 3.4487 0.0 0
M  V30 5 C -0.2383 5.1807 0.0 0
M  V30 6 C 1.7616 3.4487 0.0 0 CFG=2
M  V30 7 N 2.2616 2.5826 0.0 0
M  V30 8 C 2.2616 4.3147 0.0 0
M  V30 9 C 1.8549 1.6691 0.0 0
M  V30 10 C 3.2561 2.4781 0.0 0
M  V30 11 C 3.2616 4.3147 0.0 0
M  V30 12 C 1.7616 5.1807 0.0 0
M  V30 13 O 0.8767 1.4612 0.0 0
M  V30 14 C 2.598 0.9999 0.0 0
M  V30 15 O 3.9253 3.2212 0.0 0
M  V30 16 C 3.4641 1.5 0.0 0
M  V30 17 C 3.7616 5.1807 0.0 0
M  V30 18 C 2.2616 6.0467 0.0 0
M  V30 19 C 2.598 0.0 0.0 0
M  V30 20 C 4.3301 1.0 0.0 0
M  V30 21 O 4.7616 5.1807 0.0 0
M  V30 22 C 3.2616 6.0467 0.0 0
M  V30 23 N 1.732 -0.5 0.0 0
M  V30 24 C 3.4641 -0.4999 0.0 0
M  V30 25 C 4.3301 0.0 0.0 0
M  V30 26 C 5.2616 4.3147 0.0 0
M  V30 27 O 3.7616 6.9128 0.0 0
M  V30 28 C 1.732 -1.5 0.0 0
M  V30 29 C 6.2616 4.3147 0.0 0
M  V30 30 C 3.2616 7.7788 0.0 0
M  V30 31 O 2.598 -2.0 0.0 0
M  V30 32 C 0.866 -1.9999 0.0 0
M  V30 END ATOM
M  V30 BEGIN BOND
M  V30 1 2 1 2
M  V30 2 2 1 3
M  V30 3 1 1 4
M  V30 4 1 1 5
M  V30 5 1 6 4
M  V30 6 1 6 7 CFG=1
M  V30 7 1 6 8
M  V30 8 1 7 9
M  V30 9 1 7 10
M  V30 10 2 8 11
M  V30 11 1 8 12
M  V30 12 2 9 13
M  V30 13 1 9 14
M  V30 14 2 10 15
M  V30 15 1 10 16
M  V30 16 1 11 17
M  V30 17 2 12 18
M  V30 18 1 14 19
M  V30 19 1 16 20
M  V30 20 1 17 21
M  V30 21 2 17 22
M  V30 22 1 19 23
M  V30 23 2 19 24
M  V30 24 2 20 25
M  V30 25 1 21 26
M  V30 26 1 22 27
M  V30 27 1 23 28
M  V30 28 1 26 29
M  V30 29 1 27 30
M  V30 30 2 28 31
M  V30 31 1 28 32
M  V30 32 2 14 16
M  V30 33 1 18 22
M  V30 34 1 24 25
M  V30 END BOND
M  V30 BEGIN COLLECTION
M  V30 MDLV30/STERAC1 ATOMS=(1 6)
M  V30 END COLLECTION
M  V30 END CTAB
M  END
>  <Molecule Name>
_c001

>  <status>
-

>  <cas>
608141-41-9

>  <name>
APREMILAST

>  <ID>
1715

>  <Smiles>
CCOc(cc(C(CS(C)(=O)=O)N(C(c1c2c(NC(C)=O)ccc1)=O)C2=O)cc1)c1OC

$$$$
_c001
Actelion Java MolfileCreator 2.0

  0  0  0  0  0  0              0 V3000
M  V30 BEGIN CTAB
M  V30 COUNTS 27 30 0 0 0
M  V30 BEGIN ATOM
M  V30 1 F 3.6789 -7.7213 0.0 0
M  V30 2 C 4.5606 -6.5078 0.0 0
M  V30 3 C 6.0524 -6.6646 0.0 0
M  V30 4 C 3.9505 -5.1374 0.0 0
M  V30 5 C 6.6625 -8.0349 0.0 0
M  V30 6 C 6.934 -5.451 0.0 0
M  V30 7 C 4.8321 -3.9239 0.0 0
M  V30 8 C 5.7808 -9.2484 0.0 0
M  V30 9 C 8.1542 -8.1917 0.0 0
M  V30 10 C 6.3239 -4.0807 0.0 0
M  V30 11 N 4.222 -2.5536 0.0 0
M  V30 12 N 6.3909 -10.6187 0.0 0
M  V30 13 C 8.7643 -9.562 0.0 0
M  V30 14 C 4.972 -1.2546 0.0 0
M  V30 15 C 2.7548 -2.2417 0.0 0
M  V30 16 C 7.8827 -10.7755 0.0 0
M  V30 17 O 6.4638 -1.0978 0.0 0
M  V30 18 O 3.9683 -0.1398 0.0 0
M  V30 19 C 2.598 -0.75 0.0 0 CFG=1
M  V30 20 C 8.4928 -12.1458 0.0 0
M  V30 21 C 1.299 0.0 0.0 0
M  V30 22 N 7.7428 -13.4449 0.0 0
M  V30 23 N 9.96 -12.4577 0.0 0
M  V30 24 O 0.0 -0.75 0.0 0
M  V30 25 N 8.7465 -14.5596 0.0 0
M  V30 26 N 10.1168 -13.9495 0.0 0
M  V30 27 C 11.4158 -14.6995 0.0 0
M  V30 END ATOM
M  V30 BEGIN BOND
M  V30 1 1 1 2
M  V30 2 2 2 3
M  V30 3 1 2 4
M  V30 4 1 3 5
M  V30 5 1 3 6
M  V30 6 2 4 7
M  V30 7 2 5 8
M  V30 8 1 5 9
M  V30 9 2 6 10
M  V30 10 1 7 11
M  V30 11 1 8 12
M  V30 12 2 9 13
M  V30 13 1 11 14
M  V30 14 1 11 15
M  V30 15 2 12 16
M  V30 16 2 14 17
M  V30 17 1 14 18
M  V30 18 1 19 15
M  V30 19 1 16 20
M  V30 20 1 19 21 CFG=3
M  V30 21 1 20 22
M  V30 22 2 20 23
M  V30 23 1 21 24
M  V30 24 2 22 25
M  V30 25 1 23 26
M  V30 26 1 26 27
M  V30 27 1 7 10
M  V30 28 1 13 16
M  V30 29 1 18 19
M  V30 30 1 25 26
M  V30 END BOND
M  V30 BEGIN COLLECTION
M  V30 MDLV30/STERAC1 ATOMS=(1 19)
M  V30 END COLLECTION
M  V30 END CTAB
M  END
>  <Molecule Name>
_c001

>  <status>
-

>  <cas>
856866-72-3

>  <name>
TEDIZOLID

>  <ID>
1716

>  <Smiles>
Cn1nnc(-c(cc2)ncc2-c(ccc(N(CC(CO)O2)C2=O)c2)c2F)n1

$$$$
_c001
Actelion Java MolfileCreator 2.0

  0  0  0  0  0  0              0 V3000
M  V30 BEGIN CTAB
M  V30 COUNTS 31 34 0 0 0
M  V30 BEGIN ATOM
M  V30 1 P 3.8971 0.0 0.0 0
M  V30 2 O 4.6471 -1.299 0.0 0
M  V30 3 O 2.598 -0.75 0.0 0
M  V30 4 O 5.1961 0.75 0.0 0 CHG=-1
M  V30 5 O 3.1471 1.299 0.0 0 CHG=-1
M  V30 6 C 1.299 0.0 0.0 0
M  V30 7 C 0.0 -0.75 0.0 0 CFG=2
M  V30 8 O -1.3703 -0.1398 0.0 0
M  V30 9 C -0.1567 -2.2417 0.0 0
M  V30 10 C -2.374 -1.2546 0.0 0
M  V30 11 N -1.624 -2.5536 0.0 0
M  V30 12 O -3.8657 -1.0978 0.0 0
M  V30 13 C -2.2341 -3.9239 0.0 0
M  V30 14 C -3.7259 -4.0807 0.0 0
M  V30 15 C -1.3524 -5.1374 0.0 0
M  V30 16 C -4.336 -5.451 0.0 0
M  V30 17 C -1.9625 -6.5078 0.0 0
M  V30 18 F -5.8277 -5.6078 0.0 0
M  V30 19 C -3.4543 -6.6646 0.0 0
M  V30 20 C -4.0644 -8.0349 0.0 0
M  V30 21 C -5.5562 -8.1917 0.0 0
M  V30 22 C -3.1827 -9.2484 0.0 0
M  V30 23 N -6.1663 -9.562 0.0 0
M  V30 24 C -3.7928 -10.6187 0.0 0
M  V30 25 C -5.2846 -10.7755 0.0 0
M  V30 26 C -5.8947 -12.1458 0.0 0
M  V30 27 N -7.3619 -12.4577 0.0 0
M  V30 28 N -5.1447 -13.4449 0.0 0
M  V30 29 N -7.5187 -13.9495 0.0 0
M  V30 30 N -6.1484 -14.5596 0.0 0
M  V30 31 C -5.8365 -16.0268 0.0 0
M  V30 END ATOM
M  V30 BEGIN BOND
M  V30 1 2 1 2
M  V30 2 1 1 3
M  V30 3 1 1 4
M  V30 4 1 1 5
M  V30 5 1 3 6
M  V30 6 1 7 6 CFG=1
M  V30 7 1 7 8
M  V30 8 1 7 9
M  V30 9 1 8 10
M  V30 10 1 9 11
M  V30 11 2 10 12
M  V30 12 1 11 13
M  V30 13 2 13 14
M  V30 14 1 13 15
M  V30 15 1 14 16
M  V30 16 2 15 17
M  V30 17 1 16 18
M  V30 18 2 16 19
M  V30 19 1 19 20
M  V30 20 2 20 21
M  V30 21 1 20 22
M  V30 22 1 21 23
M  V30 23 2 22 24
M  V30 24 2 23 25
M  V30 25 1 25 26
M  V30 26 1 26 27
M  V30 27 2 26 28
M  V30 28 2 27 29
M  V30 29 1 28 30
M  V30 30 1 30 31
M  V30 31 1 10 11
M  V30 32 1 17 19
M  V30 33 1 24 25
M  V30 34 1 29 30
M  V30 END BOND
M  V30 BEGIN COLLECTION
M  V30 MDLV30/STERAC1 ATOMS=(1 7)
M  V30 END COLLECTION
M  V30 END CTAB
M  END
>  <Molecule Name>
_c001

>  <status>
-

>  <cas>
856867-55-5

>  <name>
TEDIZOLID PHOSPHATE

>  <ID>
1717

>  <Smiles>
Cn1nnc(-c(cc2)ncc2-c(ccc(N(CC(COP([O-])([O-])=O)O2)C2=O)c2)c2F)n1

$$$$
_c001
Actelion Java MolfileCreator 2.0

  0  0  0  0  0  0              0 V3000
M  V30 BEGIN CTAB
M  V30 COUNTS 33 36 0 0 0
M  V30 BEGIN ATOM
M  V30 1 O 17.1747 1.1542 0.0 0
M  V30 2 C 16.1965 0.9462 0.0 0
M  V30 3 C 15.8875 -0.0047 0.0 0
M  V30 4 C 15.5274 1.6894 0.0 0
M  V30 5 C 14.9094 -0.2126 0.0 0
M  V30 6 C 14.5493 1.4815 0.0 0
M  V30 7 C 14.2402 0.5304 0.0 0 CFG=1
M  V30 8 C 14.6004 -1.1637 0.0 0
M  V30 9 C 13.2621 0.3225 0.0 0 CFG=1
M  V30 10 C 13.5711 1.2736 0.0 0
M  V30 11 C 13.6222 -1.3716 0.0 0
M  V30 12 C 12.9531 -0.6284 0.0 0 CFG=2
M  V30 13 C 12.593 1.0657 0.0 0
M  V30 14 C 11.9749 -0.8364 0.0 0 CFG=2
M  V30 15 C 11.6148 0.8577 0.0 0
M  V30 16 C 11.3058 -0.0932 0.0 0 CFG=1
M  V30 17 C 11.4749 -1.7024 0.0 0
M  V30 18 C 10.3923 -0.5 0.0 0 CFG=1
M  V30 19 C 10.5627 0.5758 0.0 0
M  V30 20 C 10.4968 -1.4945 0.0 0
M  V30 21 O 9.5262 0.0 0.0 0
M  V30 22 C 8.6602 -0.5 0.0 0
M  V30 23 O 8.6602 -1.4999 0.0 0
M  V30 24 C 7.7942 0.0 0.0 0
M  V30 25 C 6.9282 -0.5 0.0 0
M  V30 26 C 6.0621 0.0 0.0 0
M  V30 27 C 5.1961 -0.5 0.0 0
M  V30 28 C 4.3301 0.0 0.0 0
M  V30 29 C 3.4641 -0.5 0.0 0
M  V30 30 C 2.598 0.0 0.0 0
M  V30 31 C 1.732 -0.5 0.0 0
M  V30 32 C 0.866 0.0 0.0 0
M  V30 33 C 0.0 -0.5 0.0 0
M  V30 END ATOM
M  V30 BEGIN BOND
M  V30 1 2 1 2
M  V30 2 1 2 3
M  V30 3 1 2 4
M  V30 4 2 3 5
M  V30 5 1 4 6
M  V30 6 1 7 5
M  V30 7 1 5 8
M  V30 8 1 9 7
M  V30 9 1 7 10 CFG=1
M  V30 10 1 8 11
M  V30 11 1 12 9
M  V30 12 1 9 13 CFG=1
M  V30 13 1 14 12
M  V30 14 1 13 15
M  V30 15 1 16 14
M  V30 16 1 14 17 CFG=1
M  V30 17 1 18 16
M  V30 18 1 16 19 CFG=1
M  V30 19 1 17 20
M  V30 20 1 18 21 CFG=1
M  V30 21 1 21 22
M  V30 22 2 22 23
M  V30 23 1 22 24
M  V30 24 1 24 25
M  V30 25 1 25 26
M  V30 26 1 26 27
M  V30 27 1 27 28
M  V30 28 1 28 29
M  V30 29 1 29 30
M  V30 30 1 30 31
M  V30 31 1 31 32
M  V30 32 1 32 33
M  V30 33 1 6 7
M  V30 34 1 12 11 CFG=3
M  V30 35 1 15 16
M  V30 36 1 18 20
M  V30 END BOND
M  V30 BEGIN COLLECTION
M  V30 MDLV30/STERAC1 ATOMS=(6 7 9 12 14 16 18)
M  V30 END COLLECTION
M  V30 END CTAB
M  END
>  <Molecule Name>
_c001

>  <status>
-

>  <cas>
5949-44-0

>  <name>
TESTOSTERONE UNDECANOATE

>  <ID>
1718

>  <Smiles>
CCCCCCCCCCC(O[C@H](CC1)[C@](C)(CC2)[C@H]1[C@@H](CC1)[C@@H]2[C@](C)(CC2)C1=CC2=O)=O

$$$$
_c001
Actelion Java MolfileCreator 2.0

  0  0  0  0  0  0              0 V3000
M  V30 BEGIN CTAB
M  V30 COUNTS 28 30 0 0 0
M  V30 BEGIN ATOM
M  V30 1 Cl 6.9282 2.5 0.0 0
M  V30 2 C 6.9282 1.5 0.0 0
M  V30 3 C 6.0621 1.0 0.0 0
M  V30 4 C 7.7942 1.0 0.0 0
M  V30 5 C 6.0621 0.0 0.0 0
M  V30 6 C 5.1961 1.5 0.0 0
M  V30 7 C 7.7942 0.0 0.0 0
M  V30 8 C 6.9282 -0.4999 0.0 0
M  V30 9 C 4.3301 1.0 0.0 0
M  V30 10 C 6.9282 -1.4999 0.0 0 CFG=1
M  V30 11 C 3.4641 1.5 0.0 0
M  V30 12 C 4.3301 0.0 0.0 0
M  V30 13 O 6.0621 -1.9999 0.0 0
M  V30 14 C 7.7942 -1.9999 0.0 0 CFG=1
M  V30 15 C 2.598 0.9999 0.0 0
M  V30 16 C 3.4641 -0.4999 0.0 0
M  V30 17 C 6.0621 -2.9999 0.0 0 CFG=2
M  V30 18 O 8.6602 -1.4999 0.0 0
M  V30 19 C 7.7942 -2.9999 0.0 0 CFG=1
M  V30 20 C 2.598 0.0 0.0 0
M  V30 21 C 6.9282 -3.4999 0.0 0 CFG=1
M  V30 22 C 5.1961 -3.4999 0.0 0
M  V30 23 O 8.6602 -3.4999 0.0 0
M  V30 24 O 1.732 -0.5 0.0 0
M  V30 25 O 6.9282 -4.4999 0.0 0
M  V30 26 O 5.1961 -4.4999 0.0 0
M  V30 27 C 0.866 0.0 0.0 0
M  V30 28 C 0.0 -0.5 0.0 0
M  V30 END ATOM
M  V30 BEGIN BOND
M  V30 1 1 1 2
M  V30 2 2 2 3
M  V30 3 1 2 4
M  V30 4 1 3 5
M  V30 5 1 3 6
M  V30 6 2 4 7
M  V30 7 2 5 8
M  V30 8 1 6 9
M  V30 9 1 10 8 CFG=3
M  V30 10 2 9 11
M  V30 11 1 9 12
M  V30 12 1 10 13
M  V30 13 1 14 10
M  V30 14 1 11 15
M  V30 15 2 12 16
M  V30 16 1 17 13
M  V30 17 1 14 18 CFG=1
M  V30 18 1 19 14
M  V30 19 2 15 20
M  V30 20 1 21 17
M  V30 21 1 17 22 CFG=3
M  V30 22 1 19 23 CFG=3
M  V30 23 1 20 24
M  V30 24 1 21 25 CFG=1
M  V30 25 1 22 26
M  V30 26 1 24 27
M  V30 27 1 27 28
M  V30 28 1 7 8
M  V30 29 1 16 20
M  V30 30 1 19 21
M  V30 END BOND
M  V30 BEGIN COLLECTION
M  V30 MDLV30/STERAC1 ATOMS=(5 10 14 17 19 21)
M  V30 END COLLECTION
M  V30 END CTAB
M  END
>  <Molecule Name>
_c001

>  <status>
-

>  <cas>
461432-26-8

>  <name>
DAPAGLIFLOZIN

>  <ID>
1719

>  <Smiles>
CCOc1ccc(Cc(cc([C@H]([C@H]([C@@H]2O)O)O[C@@H](CO)[C@@H]2O)cc2)c2Cl)cc1

$$$$
_c001
Actelion Java MolfileCreator 2.0

  0  0  0  0  0  0              0 V3000
M  V30 BEGIN CTAB
M  V30 COUNTS 31 34 0 0 0
M  V30 BEGIN ATOM
M  V30 1 Cl 2.598 1.0 0.0 0
M  V30 2 C 2.598 0.0 0.0 0
M  V30 3 C 1.732 -0.5 0.0 0
M  V30 4 C 3.4641 -0.4999 0.0 0
M  V30 5 C 1.732 -1.5 0.0 0
M  V30 6 C 0.866 0.0 0.0 0
M  V30 7 C 3.4641 -1.4999 0.0 0
M  V30 8 C 2.598 -1.9999 0.0 0
M  V30 9 C 0.0 -0.5 0.0 0
M  V30 10 C 2.598 -2.9999 0.0 0 CFG=1
M  V30 11 C -0.866 0.0 0.0 0
M  V30 12 C 0.0 -1.4999 0.0 0
M  V30 13 O 1.732 -3.5 0.0 0
M  V30 14 C 3.4641 -3.4999 0.0 0 CFG=1
M  V30 15 C -1.732 -0.4999 0.0 0
M  V30 16 C -0.866 -1.9999 0.0 0
M  V30 17 C 1.732 -4.5 0.0 0 CFG=2
M  V30 18 O 4.3301 -2.9999 0.0 0
M  V30 19 C 3.4641 -4.4999 0.0 0 CFG=1
M  V30 20 C -1.732 -1.4999 0.0 0
M  V30 21 C 2.598 -4.9999 0.0 0 CFG=1
M  V30 22 C 0.866 -5.0 0.0 0
M  V30 23 O 4.3301 -4.9999 0.0 0
M  V30 24 O -2.598 -1.9999 0.0 0
M  V30 25 O 2.598 -5.9999 0.0 0
M  V30 26 O 0.866 -6.0 0.0 0
M  V30 27 C -2.598 -2.9999 0.0 0 CFG=1
M  V30 28 C -3.407 -3.5877 0.0 0
M  V30 29 C -1.789 -3.5877 0.0 0
M  V30 30 O -3.098 -4.5388 0.0 0
M  V30 31 C -2.098 -4.5388 0.0 0
M  V30 END ATOM
M  V30 BEGIN BOND
M  V30 1 1 1 2
M  V30 2 2 2 3
M  V30 3 1 2 4
M  V30 4 1 3 5
M  V30 5 1 3 6
M  V30 6 2 4 7
M  V30 7 2 5 8
M  V30 8 1 6 9
M  V30 9 1 10 8 CFG=3
M  V30 10 2 9 11
M  V30 11 1 9 12
M  V30 12 1 10 13
M  V30 13 1 14 10
M  V30 14 1 11 15
M  V30 15 2 12 16
M  V30 16 1 17 13
M  V30 17 1 14 18 CFG=1
M  V30 18 1 19 14
M  V30 19 2 15 20
M  V30 20 1 21 17
M  V30 21 1 17 22 CFG=3
M  V30 22 1 19 23 CFG=3
M  V30 23 1 20 24
M  V30 24 1 21 25 CFG=1
M  V30 25 1 22 26
M  V30 26 1 27 24 CFG=3
M  V30 27 1 27 28
M  V30 28 1 27 29
M  V30 29 1 28 30
M  V30 30 1 29 31
M  V30 31 1 7 8
M  V30 32 1 16 20
M  V30 33 1 19 21
M  V30 34 1 30 31
M  V30 END BOND
M  V30 BEGIN COLLECTION
M  V30 MDLV30/STERAC1 ATOMS=(6 10 14 17 19 21 27)
M  V30 END COLLECTION
M  V30 END CTAB
M  END
>  <Molecule Name>
_c001

>  <status>
-

>  <cas>
864070-44-0

>  <name>
EMPAGLIFLOZIN

>  <ID>
1720

>  <Smiles>
OC[C@@H]([C@@H]([C@H]([C@@H]1O)O)O)O[C@@H]1c(cc1)cc(Cc(cc2)ccc2O[C@H]2COCC2)c1Cl

$$$$
_c001
Actelion Java MolfileCreator 2.0

  0  0  0  0  0  0              0 V3000
M  V30 BEGIN CTAB
M  V30 COUNTS 32 36 0 0 0
M  V30 BEGIN ATOM
M  V30 1 Cl 9.0764 -0.5489 0.0 0
M  V30 2 C 8.1755 -0.9828 0.0 0
M  V30 3 C 7.3492 -0.4195 0.0 0
M  V30 4 C 8.1007 -1.98 0.0 0
M  V30 5 C 6.4483 -0.8534 0.0 0
M  V30 6 C 7.1998 -2.4139 0.0 0
M  V30 7 N 5.523 -0.4742 0.0 0
M  V30 8 C 6.3735 -1.8506 0.0 0
M  V30 9 C 4.8764 -1.237 0.0 0
M  V30 10 O 5.402 -2.0877 0.0 0
M  V30 11 N 3.8792 -1.1623 0.0 0
M  V30 12 C 3.5138 -0.2314 0.0 0
M  V30 13 C 3.3792 -2.0283 0.0 0
M  V30 14 C 2.5582 0.0633 0.0 0
M  V30 15 C 2.3903 -2.1773 0.0 0
M  V30 16 N 1.732 -0.5 0.0 0
M  V30 17 C 1.6573 -1.4972 0.0 0 CFG=1
M  V30 18 C 0.866 0.0 0.0 0
M  V30 19 C 0.7264 -1.8625 0.0 0
M  V30 20 O 0.866 1.0 0.0 0
M  V30 21 C 0.0 -0.5 0.0 0
M  V30 22 C -0.866 0.0 0.0 0
M  V30 23 C 0.0 -1.4999 0.0 0
M  V30 24 N -0.866 1.0 0.0 0
M  V30 25 C -1.732 -0.4999 0.0 0
M  V30 26 C -0.866 -1.9999 0.0 0
M  V30 27 N -0.057 1.5877 0.0 0
M  V30 28 N -1.675 1.5877 0.0 0
M  V30 29 C -1.732 -1.4999 0.0 0
M  V30 30 C -0.866 -2.9999 0.0 0
M  V30 31 C -0.366 2.5388 0.0 0
M  V30 32 C -1.366 2.5388 0.0 0
M  V30 END ATOM
M  V30 BEGIN BOND
M  V30 1 1 1 2
M  V30 2 2 2 3
M  V30 3 1 2 4
M  V30 4 1 3 5
M  V30 5 2 4 6
M  V30 6 1 5 7
M  V30 7 2 5 8
M  V30 8 2 7 9
M  V30 9 1 8 10
M  V30 10 1 9 11
M  V30 11 1 11 12
M  V30 12 1 11 13
M  V30 13 1 12 14
M  V30 14 1 13 15
M  V30 15 1 14 16
M  V30 16 1 17 15
M  V30 17 1 16 18
M  V30 18 1 17 19 CFG=3
M  V30 19 2 18 20
M  V30 20 1 18 21
M  V30 21 2 21 22
M  V30 22 1 21 23
M  V30 23 1 22 24
M  V30 24 1 22 25
M  V30 25 2 23 26
M  V30 26 1 24 27
M  V30 27 1 24 28
M  V30 28 2 25 29
M  V30 29 1 26 30
M  V30 30 2 27 31
M  V30 31 2 28 32
M  V30 32 1 6 8
M  V30 33 1 9 10
M  V30 34 1 16 17
M  V30 35 1 26 29
M  V30 36 1 31 32
M  V30 END BOND
M  V30 BEGIN COLLECTION
M  V30 MDLV30/STERAC1 ATOMS=(1 17)
M  V30 END COLLECTION
M  V30 END CTAB
M  END
>  <Molecule Name>
_c001

>  <status>
-

>  <cas>
1030377-33-3

>  <name>
SUVOREXANT

>  <ID>
1721

>  <Smiles>
CC(CCN(CC1)c2nc(cc(cc3)Cl)c3o2)N1C(c(cc(C)cc1)c1-n1nccn1)=O

$$$$
_c001
Actelion Java MolfileCreator 2.0

  0  0  0  0  0  0              0 V3000
M  V30 BEGIN CTAB
M  V30 COUNTS 15 15 0 0 0
M  V30 BEGIN ATOM
M  V30 1 O 5.1961 -0.75 0.0 0
M  V30 2 C 3.8971 0.0 0.0 0
M  V30 3 O 3.8971 1.5 0.0 0 CHG=-1
M  V30 4 C 2.598 -0.75 0.0 0 CFG=1
M  V30 5 N 2.598 -2.25 0.0 0
M  V30 6 C 1.299 0.0 0.0 0 CFG=2
M  V30 7 O 1.299 1.5 0.0 0
M  V30 8 C 0.0 -0.75 0.0 0
M  V30 9 C -1.299 0.0 0.0 0
M  V30 10 C 0.0 -2.2499 0.0 0
M  V30 11 C -2.598 -0.7499 0.0 0
M  V30 12 C -1.299 -2.9999 0.0 0
M  V30 13 O -3.8971 0.0 0.0 0
M  V30 14 C -2.598 -2.2499 0.0 0
M  V30 15 O -3.8971 -2.9999 0.0 0
M  V30 END ATOM
M  V30 BEGIN BOND
M  V30 1 2 1 2
M  V30 2 1 2 3
M  V30 3 1 4 2
M  V30 4 1 4 5 CFG=1
M  V30 5 1 6 4
M  V30 6 1 6 7 CFG=1
M  V30 7 1 6 8
M  V30 8 2 8 9
M  V30 9 1 8 10
M  V30 10 1 9 11
M  V30 11 2 10 12
M  V30 12 1 11 13
M  V30 13 2 11 14
M  V30 14 1 14 15
M  V30 15 1 12 14
M  V30 END BOND
M  V30 BEGIN COLLECTION
M  V30 MDLV30/STERAC1 ATOMS=(2 4 6)
M  V30 END COLLECTION
M  V30 END CTAB
M  END
>  <Molecule Name>
_c001

>  <status>
-

>  <cas>
23651-95-8

>  <name>
DROXIDOPA

>  <ID>
1722

>  <Smiles>
N[C@@H]([C@@H](c(cc1)cc(O)c1O)O)C([O-])=O

$$$$
_c001
Actelion Java MolfileCreator 2.0

  0  0  0  0  0  0              0 V3000
M  V30 BEGIN CTAB
M  V30 COUNTS 23 23 0 0 0
M  V30 BEGIN ATOM
M  V30 1 O 1.917 4.2614 0.0 0
M  V30 2 C 1.5102 3.3478 0.0 0
M  V30 3 O 0.5157 3.2433 0.0 0 CHG=-1
M  V30 4 C 2.098 2.5388 0.0 0 CFG=1
M  V30 5 C 1.789 1.5877 0.0 0 CFG=2
M  V30 6 C 3.098 2.5388 0.0 0
M  V30 7 O 0.838 1.2787 0.0 0
M  V30 8 C 2.598 1.0 0.0 0 CFG=1
M  V30 9 C 3.407 1.5877 0.0 0 CFG=1
M  V30 10 C 2.598 0.0 0.0 0 CFG=2
M  V30 11 N 4.3581 1.2787 0.0 0
M  V30 12 N 3.4641 -0.4999 0.0 0
M  V30 13 C 1.732 -0.4999 0.0 0
M  V30 14 C 5.1012 1.9478 0.0 0
M  V30 15 C 3.4641 -1.4999 0.0 0
M  V30 16 C 1.732 -1.5 0.0 0
M  V30 17 C 0.866 0.0 0.0 0
M  V30 18 N 4.8933 2.926 0.0 0 CHG=1
M  V30 19 N 6.0523 1.6388 0.0 0
M  V30 20 O 4.3301 -1.9999 0.0 0
M  V30 21 C 2.598 -2.0 0.0 0
M  V30 22 C 0.866 -2.0 0.0 0
M  V30 23 C 0.0 -0.5 0.0 0
M  V30 END ATOM
M  V30 BEGIN BOND
M  V30 1 2 1 2
M  V30 2 1 2 3
M  V30 3 1 4 2 CFG=3
M  V30 4 1 5 4
M  V30 5 1 4 6
M  V30 6 1 5 7 CFG=1
M  V30 7 1 8 5
M  V30 8 1 9 6
M  V30 9 1 8 10 CFG=1
M  V30 10 1 9 11 CFG=3
M  V30 11 1 10 12 CFG=3
M  V30 12 1 10 13
M  V30 13 1 11 14
M  V30 14 1 12 15
M  V30 15 1 13 16
M  V30 16 1 13 17
M  V30 17 2 14 18
M  V30 18 1 14 19
M  V30 19 2 15 20
M  V30 20 1 15 21
M  V30 21 1 16 22
M  V30 22 1 17 23
M  V30 23 1 8 9
M  V30 END BOND
M  V30 BEGIN COLLECTION
M  V30 MDLV30/STERAC1 ATOMS=(5 4 5 8 9 10)
M  V30 END COLLECTION
M  V30 END CTAB
M  END
>  <Molecule Name>
_c001

>  <status>
-

>  <cas>
330600-85-6

>  <name>
PERAMIVIR

>  <ID>
1723

>  <Smiles>
CCC(CC)[C@H]([C@H]([C@H](C[C@H]1C([O-])=O)NC(N)=[NH2+])[C@H]1O)NC(C)=O

$$$$
_c001
Actelion Java MolfileCreator 2.0

  0  0  0  0  0  0              0 V3000
M  V30 BEGIN CTAB
M  V30 COUNTS 29 33 0 0 0
M  V30 BEGIN ATOM
M  V30 1 F 5.1961 -6.75 0.0 0
M  V30 2 C 5.1961 -5.25 0.0 0
M  V30 3 C 6.4951 -4.5 0.0 0
M  V30 4 C 3.8971 -4.5 0.0 0
M  V30 5 N 7.7942 -5.25 0.0 0
M  V30 6 C 6.4951 -3.0 0.0 0
M  V30 7 C 3.8971 -3.0 0.0 0
M  V30 8 C 7.951 -6.7417 0.0 0
M  V30 9 C 9.1645 -4.6398 0.0 0
M  V30 10 C 7.7942 -2.25 0.0 0
M  V30 11 C 5.1961 -2.25 0.0 0
M  V30 12 C 2.598 -2.25 0.0 0
M  V30 13 C 9.4182 -7.0536 0.0 0 CFG=1
M  V30 14 C 10.1682 -5.7546 0.0 0 CFG=1
M  V30 15 N 9.0932 -1.4999 0.0 0
M  V30 16 N 5.1961 -0.75 0.0 0
M  V30 17 O 1.299 -3.0 0.0 0
M  V30 18 C 2.598 -0.75 0.0 0
M  V30 19 O 10.1682 -8.3526 0.0 0
M  V30 20 N 11.6682 -5.7546 0.0 0
M  V30 21 C 3.8971 0.0 0.0 0
M  V30 22 C 6.4951 0.0 0.0 0
M  V30 23 C 1.299 0.0 0.0 0
M  V30 24 C 11.6682 -8.3526 0.0 0
M  V30 25 C 12.4182 -7.0536 0.0 0
M  V30 26 C 7.9951 0.0 0.0 0
M  V30 27 C 7.2451 1.299 0.0 0
M  V30 28 O 1.299 1.5 0.0 0
M  V30 29 O 0.0 -0.75 0.0 0 CHG=-1
M  V30 END ATOM
M  V30 BEGIN BOND
M  V30 1 1 1 2
M  V30 2 2 2 3
M  V30 3 1 2 4
M  V30 4 1 3 5
M  V30 5 1 3 6
M  V30 6 2 4 7
M  V30 7 1 5 8
M  V30 8 1 5 9
M  V30 9 1 6 10
M  V30 10 2 6 11
M  V30 11 1 7 12
M  V30 12 1 13 8
M  V30 13 1 14 9
M  V30 14 3 10 15
M  V30 15 1 11 16
M  V30 16 2 12 17
M  V30 17 1 12 18
M  V30 18 1 13 19 CFG=1
M  V30 19 1 14 20 CFG=3
M  V30 20 1 16 21
M  V30 21 1 16 22
M  V30 22 1 18 23
M  V30 23 1 19 24
M  V30 24 1 20 25
M  V30 25 1 22 26
M  V30 26 1 22 27
M  V30 27 2 23 28
M  V30 28 1 23 29
M  V30 29 1 7 11
M  V30 30 1 13 14
M  V30 31 2 18 21
M  V30 32 1 24 25
M  V30 33 1 26 27
M  V30 END BOND
M  V30 BEGIN COLLECTION
M  V30 MDLV30/STERAC1 ATOMS=(2 13 14)
M  V30 END COLLECTION
M  V30 END CTAB
M  END
>  <Molecule Name>
_c001

>  <status>
DISCONTINUED

>  <cas>
209342-40-5

>  <name>
FINAFLOXACIN

>  <ID>
1724

>  <Smiles>
N#Cc(c(N1C[C@@H]2OCCN[C@H]2C1)c(cc12)F)c2N(C2CC2)C=C(C([O-])=O)C1=O

$$$$
_c001
Actelion Java MolfileCreator 2.0

  0  0  0  0  0  0              0 V3000
M  V30 BEGIN CTAB
M  V30 COUNTS 45 48 0 0 0
M  V30 BEGIN ATOM
M  V30 1 S 10.3923 -3.6477 0.0 0
M  V30 2 C 10.7805 -2.1988 0.0 0 CFG=2
M  V30 3 C 11.4529 -4.7084 0.0 0
M  V30 4 N 12.2294 -1.8106 0.0 0
M  V30 5 C 10.3923 -0.75 0.0 0 CFG=2
M  V30 6 C 12.9018 -4.3202 0.0 0
M  V30 7 C 13.29 -2.8713 0.0 0
M  V30 8 C 11.8412 -0.3617 0.0 0
M  V30 9 N 9.0932 0.0 0.0 0
M  V30 10 C 13.9625 -5.3808 0.0 0
M  V30 11 C 14.7389 -2.483 0.0 0
M  V30 12 O 12.5912 0.9372 0.0 0
M  V30 13 C 7.7942 -0.75 0.0 0
M  V30 14 N 13.5742 -6.8297 0.0 0 CHG=1
M  V30 15 O 15.7996 -3.5437 0.0 0
M  V30 16 O 15.1272 -1.0342 0.0 0 CHG=-1
M  V30 17 O 7.7942 -2.25 0.0 0
M  V30 18 C 6.4951 0.0 0.0 0
M  V30 19 N 12.1739 -7.3673 0.0 0
M  V30 20 C 14.5182 -7.9954 0.0 0
M  V30 21 N 5.1961 -0.75 0.0 0
M  V30 22 C 6.4951 1.5 0.0 0
M  V30 23 C 12.2524 -8.8652 0.0 0
M  V30 24 C 10.9159 -6.5503 0.0 0
M  V30 25 C 13.7013 -9.2534 0.0 0
M  V30 26 O 5.1961 -2.25 0.0 0
M  V30 27 N 7.7087 2.3816 0.0 0
M  V30 28 N 5.2816 2.3816 0.0 0
M  V30 29 N 11.0867 -9.8092 0.0 0
M  V30 30 N 14.2388 -10.6538 0.0 0
M  V30 31 C 3.8971 -3.0 0.0 0
M  V30 32 S 7.2451 3.8082 0.0 0
M  V30 33 C 5.7451 3.8082 0.0 0
M  V30 34 C 15.7204 -10.8885 0.0 0
M  V30 35 C 3.8971 -4.5 0.0 0
M  V30 36 C 2.3971 -3.0 0.0 0
M  V30 37 C 3.1471 -1.7009 0.0 0
M  V30 38 N 4.8635 5.0217 0.0 0
M  V30 39 O 16.6643 -9.7227 0.0 0
M  V30 40 N 16.2579 -12.2888 0.0 0
M  V30 41 O 5.1961 -5.25 0.0 0
M  V30 42 O 2.598 -5.25 0.0 0 CHG=-1
M  V30 43 C 17.7394 -12.5235 0.0 0
M  V30 44 C 18.277 -13.9239 0.0 0
M  V30 45 N 19.7585 -14.1585 0.0 0
M  V30 END ATOM
M  V30 BEGIN BOND
M  V30 1 1 2 1 CFG=1
M  V30 2 1 1 3
M  V30 3 1 2 4
M  V30 4 1 5 2
M  V30 5 1 3 6
M  V30 6 1 4 7
M  V30 7 1 4 8
M  V30 8 1 5 9 CFG=1
M  V30 9 1 6 10
M  V30 10 1 7 11
M  V30 11 2 8 12
M  V30 12 1 9 13
M  V30 13 1 10 14
M  V30 14 2 11 15
M  V30 15 1 11 16
M  V30 16 2 13 17
M  V30 17 1 13 18
M  V30 18 1 14 19
M  V30 19 2 14 20
M  V30 20 2 18 21
M  V30 21 1 18 22
M  V30 22 1 19 23
M  V30 23 1 19 24
M  V30 24 1 20 25
M  V30 25 1 21 26
M  V30 26 2 22 27
M  V30 27 1 22 28
M  V30 28 1 23 29
M  V30 29 1 25 30
M  V30 30 1 26 31
M  V30 31 1 27 32
M  V30 32 2 28 33
M  V30 33 1 30 34
M  V30 34 1 31 35
M  V30 35 1 31 36
M  V30 36 1 31 37
M  V30 37 1 33 38
M  V30 38 2 34 39
M  V30 39 1 34 40
M  V30 40 2 35 41
M  V30 41 1 35 42
M  V30 42 1 40 43
M  V30 43 1 43 44
M  V30 44 1 44 45
M  V30 45 1 5 8
M  V30 46 2 6 7
M  V30 47 2 23 25
M  V30 48 1 32 33
M  V30 END BOND
M  V30 BEGIN COLLECTION
M  V30 MDLV30/STERAC1 ATOMS=(2 2 5)
M  V30 END COLLECTION
M  V30 END CTAB
M  END
>  <Molecule Name>
_c001

>  <status>
-

>  <cas>
689293-68-3

>  <name>
CEFTOLOZANE

>  <ID>
1725

>  <Smiles>
CC(C)(C([O-])=O)O/N=C(\C(N[C@H]([C@@H]1SCC(C[n+]2cc(NC(NCCN)=O)c(N)n2C)=C(C([O-])=O)N11)C1=O)=O)/c1nsc(N)n1

$$$$
_c001
Actelion Java MolfileCreator 2.0

  0  0  0  0  0  0              0 V3000
M  V30 BEGIN CTAB
M  V30 COUNTS 41 44 0 0 0
M  V30 BEGIN ATOM
M  V30 1 F 8.5442 -3.549 0.0 0
M  V30 2 C 7.7942 -2.25 0.0 0
M  V30 3 F 9.0932 -1.5 0.0 0
M  V30 4 F 7.0442 -0.9509 0.0 0
M  V30 5 C 6.4951 -3.0 0.0 0
M  V30 6 C 6.4951 -4.5 0.0 0
M  V30 7 C 5.1961 -2.25 0.0 0
M  V30 8 C 5.1961 -5.25 0.0 0
M  V30 9 C 3.8971 -3.0 0.0 0
M  V30 10 C 3.8971 -4.5 0.0 0
M  V30 11 C 5.1961 -6.75 0.0 0
M  V30 12 C 2.598 -2.25 0.0 0
M  V30 13 F 3.6961 -6.75 0.0 0
M  V30 14 F 5.1961 -8.25 0.0 0
M  V30 15 F 6.6961 -6.75 0.0 0
M  V30 16 C 2.598 -0.75 0.0 0
M  V30 17 C 1.8481 -3.549 0.0 0
M  V30 18 C 1.0981 -2.2499 0.0 0
M  V30 19 O 3.8971 0.0 0.0 0
M  V30 20 N 1.299 0.0 0.0 0
M  V30 21 C 1.299 1.5 0.0 0
M  V30 22 C 0.0 -0.75 0.0 0
M  V30 23 C 0.0 2.25 0.0 0
M  V30 24 C 2.598 2.25 0.0 0
M  V30 25 C -1.299 1.5 0.0 0
M  V30 26 C 0.0 3.75 0.0 0
M  V30 27 N 2.598 3.75 0.0 0
M  V30 28 C -2.598 2.25 0.0 0
M  V30 29 C -1.299 0.0 0.0 0
M  V30 30 C 1.299 4.5 0.0 0
M  V30 31 C -3.8971 1.5 0.0 0
M  V30 32 C -2.598 3.75 0.0 0
M  V30 33 C -2.598 -0.75 0.0 0
M  V30 34 N 1.299 6.0 0.0 0
M  V30 35 C -3.8971 0.0 0.0 0
M  V30 36 C 0.0 6.75 0.0 0
M  V30 37 C 2.598 6.75 0.0 0
M  V30 38 C 0.0 8.25 0.0 0
M  V30 39 C 2.598 8.25 0.0 0
M  V30 40 N 1.299 9.0 0.0 0
M  V30 41 C 1.299 10.5 0.0 0
M  V30 END ATOM
M  V30 BEGIN BOND
M  V30 1 1 1 2
M  V30 2 1 2 3
M  V30 3 1 2 4
M  V30 4 1 2 5
M  V30 5 2 5 6
M  V30 6 1 5 7
M  V30 7 1 6 8
M  V30 8 2 7 9
M  V30 9 2 8 10
M  V30 10 1 8 11
M  V30 11 1 9 12
M  V30 12 1 11 13
M  V30 13 1 11 14
M  V30 14 1 11 15
M  V30 15 1 12 16
M  V30 16 1 12 17
M  V30 17 1 12 18
M  V30 18 2 16 19
M  V30 19 1 16 20
M  V30 20 1 20 21
M  V30 21 1 20 22
M  V30 22 2 21 23
M  V30 23 1 21 24
M  V30 24 1 23 25
M  V30 25 1 23 26
M  V30 26 2 24 27
M  V30 27 2 25 28
M  V30 28 1 25 29
M  V30 29 2 26 30
M  V30 30 1 28 31
M  V30 31 1 28 32
M  V30 32 2 29 33
M  V30 33 1 30 34
M  V30 34 2 31 35
M  V30 35 1 34 36
M  V30 36 1 34 37
M  V30 37 1 36 38
M  V30 38 1 37 39
M  V30 39 1 38 40
M  V30 40 1 40 41
M  V30 41 1 9 10
M  V30 42 1 27 30
M  V30 43 1 33 35
M  V30 44 1 39 40
M  V30 END BOND
M  V30 END CTAB
M  END
>  <Molecule Name>
_c001

>  <status>
-

>  <cas>
290297-26-6

>  <name>
NETUPITANT

>  <ID>
1726

>  <Smiles>
CC(C)(C(N(C)c(cnc(N1CCN(C)CC1)c1)c1-c1c(C)cccc1)=O)c1cc(C(F)(F)F)cc(C(F)(F)F)c1

$$$$
_c001
Actelion Java MolfileCreator 2.0

  0  0  0  0  0  0              0 V3000
M  V30 BEGIN CTAB
M  V30 COUNTS 46 50 0 0 0
M  V30 BEGIN ATOM
M  V30 1 O 21.1311 -1.4802 0.0 0
M  V30 2 C 22.1309 -1.4572 0.0 0
M  V30 3 C 20.8003 -0.5365 0.0 0 CFG=1
M  V30 4 C 22.9438 -2.0932 0.0 0
M  V30 5 C 22.4179 -0.4992 0.0 0
M  V30 6 C 21.5956 0.0697 0.0 0 CFG=1
M  V30 7 C 19.9185 0.0 0.0 0 CFG=2
M  V30 8 O 22.7811 -3.0799 0.0 0
M  V30 9 C 23.8875 -1.7624 0.0 0
M  V30 10 C 23.3219 -0.0716 0.0 0
M  V30 11 C 21.6772 1.0663 0.0 0 CFG=1
M  V30 12 C 20.5142 0.8003 0.0 0
M  V30 13 O 19.0525 -0.5 0.0 0
M  V30 14 C 19.8955 0.9997 0.0 0
M  V30 15 C 24.0728 -0.7797 0.0 0
M  V30 16 C 23.4035 0.925 0.0 0
M  V30 17 O 21.6952 1.9514 0.0 0
M  V30 18 C 22.5811 1.494 0.0 0 CFG=2
M  V30 19 C 20.8286 1.5 0.0 0
M  V30 20 C 20.5442 1.891 0.0 0
M  V30 21 C 18.1865 0.0 0.0 0
M  V30 22 N 21.4467 2.307 0.0 0
M  V30 23 C 17.3205 -0.5 0.0 0
M  V30 24 C 21.5663 3.2493 0.0 0
M  V30 25 O 16.4544 0.0 0.0 0
M  V30 26 C 22.4702 3.677 0.0 0
M  V30 27 C 15.5884 -0.5 0.0 0
M  V30 28 C 22.5518 4.6737 0.0 0
M  V30 29 C 14.7224 0.0 0.0 0
M  V30 30 O 13.8564 -0.5 0.0 0
M  V30 31 C 12.9903 0.0 0.0 0
M  V30 32 C 12.1243 -0.5 0.0 0
M  V30 33 O 11.2583 0.0 0.0 0
M  V30 34 C 10.3923 -0.5 0.0 0
M  V30 35 C 9.5262 0.0 0.0 0
M  V30 36 O 8.6602 -0.5 0.0 0
M  V30 37 C 7.7942 0.0 0.0 0
M  V30 38 C 6.9282 -0.5 0.0 0
M  V30 39 O 6.0621 0.0 0.0 0
M  V30 40 C 5.1961 -0.5 0.0 0
M  V30 41 C 4.3301 0.0 0.0 0
M  V30 42 O 3.4641 -0.5 0.0 0
M  V30 43 C 2.598 0.0 0.0 0
M  V30 44 C 1.732 -0.5 0.0 0
M  V30 45 O 0.866 0.0 0.0 0
M  V30 46 C 0.0 -0.5 0.0 0
M  V30 END ATOM
M  V30 BEGIN BOND
M  V30 1 1 1 2
M  V30 2 1 3 1 CFG=3
M  V30 3 2 2 4
M  V30 4 1 2 5
M  V30 5 1 6 3
M  V30 6 1 7 3
M  V30 7 1 4 8
M  V30 8 1 4 9
M  V30 9 2 5 10
M  V30 10 1 11 6
M  V30 11 1 6 12 CFG=1
M  V30 12 1 7 13 CFG=3
M  V30 13 1 7 14
M  V30 14 2 9 15
M  V30 15 1 10 16
M  V30 16 1 11 17 CFG=1
M  V30 17 1 18 11
M  V30 18 1 11 19
M  V30 19 1 12 20
M  V30 20 1 13 21
M  V30 21 1 18 22 CFG=1
M  V30 22 1 21 23
M  V30 23 1 22 24
M  V30 24 1 23 25
M  V30 25 1 24 26
M  V30 26 1 25 27
M  V30 27 2 26 28
M  V30 28 1 27 29
M  V30 29 1 29 30
M  V30 30 1 30 31
M  V30 31 1 31 32
M  V30 32 1 32 33
M  V30 33 1 33 34
M  V30 34 1 34 35
M  V30 35 1 35 36
M  V30 36 1 36 37
M  V30 37 1 37 38
M  V30 38 1 38 39
M  V30 39 1 39 40
M  V30 40 1 40 41
M  V30 41 1 41 42
M  V30 42 1 42 43
M  V30 43 1 43 44
M  V30 44 1 44 45
M  V30 45 1 45 46
M  V30 46 1 5 6
M  V30 47 1 10 15
M  V30 48 1 14 19
M  V30 49 1 16 18
M  V30 50 1 20 22
M  V30 END BOND
M  V30 BEGIN COLLECTION
M  V30 MDLV30/STERAC1 ATOMS=(5 3 6 7 11 18)
M  V30 END COLLECTION
M  V30 END CTAB
M  END
>  <Molecule Name>
_c001

>  <status>
-

>  <cas>
854601-70-0

>  <name>
NALOXEGOL

>  <ID>
1727

>  <Smiles>
COCCOCCOCCOCCOCCOCCOCCO[C@H](CC[C@]([C@H](C1)N(CC=C)CC2)([C@]22c3c1cc1)O)[C@H]2Oc3c1O

$$$$
_c001
Actelion Java MolfileCreator 2.0

  0  0  0  0  0  0              0 V3000
M  V30 BEGIN CTAB
M  V30 COUNTS 29 31 0 0 0
M  V30 BEGIN ATOM
M  V30 1 O 9.0932 1.4999 0.0 0
M  V30 2 C 9.0932 0.0 0.0 0
M  V30 3 N 10.3923 -0.75 0.0 0
M  V30 4 C 7.7942 -0.75 0.0 0
M  V30 5 C 11.6913 0.0 0.0 0 CFG=1
M  V30 6 C 6.4951 0.0 0.0 0
M  V30 7 C 12.9903 -0.75 0.0 0 CFG=2
M  V30 8 C 11.6913 1.5 0.0 0
M  V30 9 C 5.1961 -0.75 0.0 0
M  V30 10 O 14.2894 0.0 0.0 0
M  V30 11 C 12.9903 -2.25 0.0 0
M  V30 12 N 12.9903 2.25 0.0 0
M  V30 13 C 3.8971 0.0 0.0 0
M  V30 14 C 11.6913 -2.9999 0.0 0
M  V30 15 C 14.2894 -3.0 0.0 0
M  V30 16 C 13.1471 3.7417 0.0 0
M  V30 17 C 14.3606 1.6398 0.0 0
M  V30 18 C 2.598 -0.75 0.0 0
M  V30 19 C 11.6913 -4.5 0.0 0
M  V30 20 C 14.2894 -4.5 0.0 0
M  V30 21 C 14.6143 4.0536 0.0 0
M  V30 22 C 15.3643 2.7546 0.0 0
M  V30 23 C 1.299 0.0 0.0 0
M  V30 24 O 10.3923 -5.2499 0.0 0
M  V30 25 C 12.9903 -5.2499 0.0 0
M  V30 26 C 0.0 -0.75 0.0 0
M  V30 27 C 10.3923 -6.75 0.0 0
M  V30 28 O 12.9903 -6.75 0.0 0
M  V30 29 C 11.6913 -7.5 0.0 0
M  V30 END ATOM
M  V30 BEGIN BOND
M  V30 1 2 1 2
M  V30 2 1 2 3
M  V30 3 1 2 4
M  V30 4 1 5 3 CFG=3
M  V30 5 1 4 6
M  V30 6 1 7 5
M  V30 7 1 5 8
M  V30 8 1 6 9
M  V30 9 1 7 10 CFG=3
M  V30 10 1 7 11
M  V30 11 1 8 12
M  V30 12 1 9 13
M  V30 13 2 11 14
M  V30 14 1 11 15
M  V30 15 1 12 16
M  V30 16 1 12 17
M  V30 17 1 13 18
M  V30 18 1 14 19
M  V30 19 2 15 20
M  V30 20 1 16 21
M  V30 21 1 17 22
M  V30 22 1 18 23
M  V30 23 1 19 24
M  V30 24 2 19 25
M  V30 25 1 23 26
M  V30 26 1 24 27
M  V30 27 1 25 28
M  V30 28 1 27 29
M  V30 29 1 20 25
M  V30 30 1 21 22
M  V30 31 1 28 29
M  V30 END BOND
M  V30 BEGIN COLLECTION
M  V30 MDLV30/STERAC1 ATOMS=(2 5 7)
M  V30 END COLLECTION
M  V30 END CTAB
M  END
>  <Molecule Name>
_c001

>  <status>
-

>  <cas>
491833-29-5

>  <name>
ELIGLUSTAT

>  <ID>
1728

>  <Smiles>
CCCCCCCC(N[C@H](CN1CCCC1)[C@@H](c(cc1)cc2c1OCCO2)O)=O

$$$$
_c001
Actelion Java MolfileCreator 2.0

  0  0  0  0  0  0              0 V3000
M  V30 BEGIN CTAB
M  V30 COUNTS 22 23 0 0 0
M  V30 BEGIN ATOM
M  V30 1 S 7.7942 3.75 0.0 0
M  V30 2 O 7.0442 5.049 0.0 0
M  V30 3 O 6.2942 3.7499 0.0 0
M  V30 4 N 9.0932 4.5 0.0 0
M  V30 5 C 7.7942 2.25 0.0 0
M  V30 6 C 9.0932 6.0 0.0 0
M  V30 7 C 6.4952 1.5 0.0 0
M  V30 8 C 9.0932 1.5 0.0 0
M  V30 9 C 10.3923 6.75 0.0 0
M  V30 10 C 7.7942 6.75 0.0 0
M  V30 11 C 6.4952 0.0 0.0 0
M  V30 12 C 9.0932 0.0 0.0 0
M  V30 13 C 10.3923 8.25 0.0 0
M  V30 14 C 7.7942 8.25 0.0 0
M  V30 15 C 7.7942 -0.75 0.0 0
M  V30 16 C 5.1961 -0.75 0.0 0
M  V30 17 C 9.0932 9.0 0.0 0
M  V30 18 C 3.8971 0.0 0.0 0
M  V30 19 C 2.598 -0.75 0.0 0
M  V30 20 O 2.598 -2.25 0.0 0
M  V30 21 N 1.299 0.0 0.0 0
M  V30 22 O 0.0 -0.75 0.0 0
M  V30 END ATOM
M  V30 BEGIN BOND
M  V30 1 2 1 2
M  V30 2 2 1 3
M  V30 3 1 1 4
M  V30 4 1 1 5
M  V30 5 1 4 6
M  V30 6 2 5 7
M  V30 7 1 5 8
M  V30 8 2 6 9
M  V30 9 1 6 10
M  V30 10 1 7 11
M  V30 11 2 8 12
M  V30 12 1 9 13
M  V30 13 2 10 14
M  V30 14 2 11 15
M  V30 15 1 11 16
M  V30 16 2 13 17
M  V30 17 2 16 18
M  V30 18 1 18 19
M  V30 19 2 19 20
M  V30 20 1 19 21
M  V30 21 1 21 22
M  V30 22 1 12 15
M  V30 23 1 14 17
M  V30 END BOND
M  V30 END CTAB
M  END
>  <Molecule Name>
_c001

>  <status>
-

>  <cas>
414864-00-9

>  <name>
BELINOSTAT

>  <ID>
1729

>  <Smiles>
ONC(/C=C/c1cccc(S(Nc2ccccc2)(=O)=O)c1)=O

$$$$
_c001
Actelion Java MolfileCreator 2.0

  0  0  0  0  0  0              0 V3000
M  V30 BEGIN CTAB
M  V30 COUNTS 31 35 0 0 0
M  V30 BEGIN ATOM
M  V30 1 F 2.598 -4.9999 0.0 0
M  V30 2 C 1.732 -4.5 0.0 0
M  V30 3 C 1.732 -3.5 0.0 0
M  V30 4 C 0.866 -5.0 0.0 0
M  V30 5 C 2.598 -2.9999 0.0 0
M  V30 6 C 0.866 -3.0 0.0 0
M  V30 7 C 0.0 -4.5 0.0 0
M  V30 8 O 3.4641 -3.4999 0.0 0
M  V30 9 N 2.598 -1.9999 0.0 0
M  V30 10 N 0.866 -2.0 0.0 0
M  V30 11 C 0.0 -3.5 0.0 0
M  V30 12 C 3.4641 -1.4999 0.0 0
M  V30 13 C 1.732 -1.5 0.0 0
M  V30 14 C 4.3301 -1.9999 0.0 0
M  V30 15 C 3.4641 -0.4999 0.0 0
M  V30 16 C 1.732 -0.5 0.0 0 CFG=1
M  V30 17 C 5.1961 -1.4999 0.0 0
M  V30 18 C 4.3301 0.0 0.0 0
M  V30 19 N 0.866 0.0 0.0 0
M  V30 20 C 2.598 0.0 0.0 0
M  V30 21 C 5.1961 -0.5 0.0 0
M  V30 22 C 0.0 -0.5 0.0 0
M  V30 23 C 2.598 1.0 0.0 0
M  V30 24 N 0.0 -1.4999 0.0 0
M  V30 25 C -0.866 0.0 0.0 0
M  V30 26 C -0.866 -1.9999 0.0 0
M  V30 27 N -1.0739 0.9781 0.0 0
M  V30 28 C -1.732 -0.4999 0.0 0
M  V30 29 N -1.732 -1.4999 0.0 0
M  V30 30 C -2.0684 1.0826 0.0 0
M  V30 31 N -2.4751 0.1691 0.0 0
M  V30 END ATOM
M  V30 BEGIN BOND
M  V30 1 1 1 2
M  V30 2 2 2 3
M  V30 3 1 2 4
M  V30 4 1 3 5
M  V30 5 1 3 6
M  V30 6 2 4 7
M  V30 7 2 5 8
M  V30 8 1 5 9
M  V30 9 1 6 10
M  V30 10 2 6 11
M  V30 11 1 9 12
M  V30 12 1 9 13
M  V30 13 2 12 14
M  V30 14 1 12 15
M  V30 15 1 16 13
M  V30 16 1 14 17
M  V30 17 2 15 18
M  V30 18 1 16 19 CFG=1
M  V30 19 1 16 20
M  V30 20 2 17 21
M  V30 21 1 19 22
M  V30 22 1 20 23
M  V30 23 2 22 24
M  V30 24 1 22 25
M  V30 25 1 24 26
M  V30 26 1 25 27
M  V30 27 2 25 28
M  V30 28 2 26 29
M  V30 29 1 27 30
M  V30 30 1 28 31
M  V30 31 1 7 11
M  V30 32 2 10 13
M  V30 33 1 18 21
M  V30 34 1 28 29
M  V30 35 2 30 31
M  V30 END BOND
M  V30 BEGIN COLLECTION
M  V30 MDLV30/STERAC1 ATOMS=(1 16)
M  V30 END COLLECTION
M  V30 END CTAB
M  END
>  <Molecule Name>
_c001

>  <status>
-

>  <cas>
870281-82-6

>  <name>
IDELALISIB

>  <ID>
1730

>  <Smiles>
CCC(C(N1c2ccccc2)=Nc2cccc(F)c2C1=O)Nc1ncnc2c1[nH]cn2

$$$$
_c001
Actelion Java MolfileCreator 2.0

  0  0  0  0  0  0              0 V3000
M  V30 BEGIN CTAB
M  V30 COUNTS 65 74 0 0 0
M  V30 BEGIN ATOM
M  V30 1 F 7.2805 5.7346 0.0 0
M  V30 2 C 6.3295 6.0437 0.0 0
M  V30 3 F 7.0726 6.7128 0.0 0
M  V30 4 C 5.5863 6.7128 0.0 0
M  V30 5 C 5.9227 5.1301 0.0 0
M  V30 6 C 4.7203 6.2128 0.0 0
M  V30 7 C 5.5863 7.7128 0.0 0
M  V30 8 C 4.9282 5.2346 0.0 0
M  V30 9 C 6.3295 4.2166 0.0 0
M  V30 10 C 3.8543 6.7128 0.0 0
M  V30 11 C 4.7203 8.2128 0.0 0
M  V30 12 C 4.3404 4.4256 0.0 0
M  V30 13 C 5.7417 3.4075 0.0 0
M  V30 14 C 3.8543 7.7128 0.0 0
M  V30 15 C 4.7203 9.2128 0.0 0
M  V30 16 C 4.7472 3.5121 0.0 0
M  V30 17 C 6.1484 2.494 0.0 0
M  V30 18 C 5.5863 9.7128 0.0 0
M  V30 19 C 3.8543 9.7128 0.0 0
M  V30 20 N 5.6484 1.628 0.0 0
M  V30 21 C 7.1266 2.2861 0.0 0
M  V30 22 C 5.5863 10.7128 0.0 0
M  V30 23 C 3.8543 10.7128 0.0 0
M  V30 24 C 6.3176 0.8848 0.0 0
M  V30 25 N 7.2311 1.2916 0.0 0
M  V30 26 N 6.3295 11.3819 0.0 0
M  V30 27 C 4.7203 11.2128 0.0 0
M  V30 28 C 6.1096 -0.0932 0.0 0 CFG=1
M  V30 29 C 5.9227 12.2955 0.0 0
M  V30 30 N 4.9282 12.1909 0.0 0
M  V30 31 N 5.1961 -0.5 0.0 0
M  V30 32 C 6.7788 -0.8364 0.0 0
M  V30 33 C 6.4227 13.1615 0.0 0 CFG=1
M  V30 34 C 4.3301 0.0 0.0 0
M  V30 35 C 5.3006 -1.4945 0.0 0
M  V30 36 C 6.2788 -1.7024 0.0 0
M  V30 37 N 7.4173 13.266 0.0 0
M  V30 38 C 6.016 14.075 0.0 0 CFG=2
M  V30 39 O 4.3301 1.0 0.0 0
M  V30 40 C 3.4641 -0.5 0.0 0 CFG=1
M  V30 41 C 6.1743 -2.6969 0.0 0
M  V30 42 C 7.0878 -2.2902 0.0 0
M  V30 43 C 8.0864 12.5229 0.0 0
M  V30 44 C 7.6252 14.2442 0.0 0 CFG=1
M  V30 45 C 6.7591 14.7442 0.0 0
M  V30 46 C 6.183 15.4429 0.0 0
M  V30 47 N 2.598 0.0 0.0 0
M  V30 48 C 3.4641 -1.5 0.0 0
M  V30 49 O 7.7774 11.5718 0.0 0
M  V30 50 C 9.0645 12.7308 0.0 0 CFG=1
M  V30 51 C 7.1775 15.5474 0.0 0
M  V30 52 C 1.732 -0.5 0.0 0
M  V30 53 C 2.598 -1.9999 0.0 0
M  V30 54 C 4.3301 -2.0 0.0 0
M  V30 55 N 9.7337 11.9876 0.0 0
M  V30 56 C 9.3736 13.6818 0.0 0
M  V30 57 O 1.732 -1.5 0.0 0
M  V30 58 O 0.866 0.0 0.0 0
M  V30 59 C 10.7118 12.1956 0.0 0
M  V30 60 C 10.3517 13.8898 0.0 0
M  V30 61 C 8.7044 14.425 0.0 0
M  V30 62 C 0.0 -0.5 0.0 0
M  V30 63 O 11.0208 13.1466 0.0 0
M  V30 64 O 11.3809 11.4524 0.0 0
M  V30 65 C 12.3591 11.6603 0.0 0
M  V30 END ATOM
M  V30 BEGIN BOND
M  V30 1 1 1 2
M  V30 2 1 2 3
M  V30 3 1 2 4
M  V30 4 1 2 5
M  V30 5 2 4 6
M  V30 6 1 4 7
M  V30 7 2 5 8
M  V30 8 1 5 9
M  V30 9 1 6 10
M  V30 10 2 7 11
M  V30 11 1 8 12
M  V30 12 2 9 13
M  V30 13 2 10 14
M  V30 14 1 11 15
M  V30 15 2 12 16
M  V30 16 1 13 17
M  V30 17 2 15 18
M  V30 18 1 15 19
M  V30 19 1 17 20
M  V30 20 2 17 21
M  V30 21 1 18 22
M  V30 22 2 19 23
M  V30 23 1 20 24
M  V30 24 1 21 25
M  V30 25 1 22 26
M  V30 26 2 22 27
M  V30 27 1 28 24 CFG=3
M  V30 28 1 26 29
M  V30 29 1 27 30
M  V30 30 1 28 31
M  V30 31 1 28 32
M  V30 32 1 33 29 CFG=3
M  V30 33 1 31 34
M  V30 34 1 31 35
M  V30 35 1 32 36
M  V30 36 1 33 37
M  V30 37 1 38 33
M  V30 38 2 34 39
M  V30 39 1 40 34
M  V30 40 1 36 41
M  V30 41 1 36 42
M  V30 42 1 37 43
M  V30 43 1 44 37 CFG=1
M  V30 44 1 38 45 CFG=3
M  V30 45 1 38 46
M  V30 46 1 40 47 CFG=3
M  V30 47 1 40 48
M  V30 48 2 43 49
M  V30 49 1 50 43
M  V30 50 1 44 51
M  V30 51 1 47 52
M  V30 52 1 48 53
M  V30 53 1 48 54
M  V30 54 1 50 55 CFG=3
M  V30 55 1 50 56
M  V30 56 2 52 57
M  V30 57 1 52 58
M  V30 58 1 55 59
M  V30 59 1 56 60
M  V30 60 1 56 61
M  V30 61 1 58 62
M  V30 62 2 59 63
M  V30 63 1 59 64
M  V30 64 1 64 65
M  V30 65 1 6 8
M  V30 66 1 11 14
M  V30 67 1 13 16
M  V30 68 1 23 27
M  V30 69 2 24 25
M  V30 70 2 29 30
M  V30 71 1 35 36
M  V30 72 1 41 42
M  V30 73 1 44 45
M  V30 74 1 46 51
M  V30 END BOND
M  V30 BEGIN COLLECTION
M  V30 MDLV30/STERAC1 ATOMS=(6 28 33 38 40 44 50)
M  V30 END COLLECTION
M  V30 END CTAB
M  END
>  <Molecule Name>
_c001

>  <status>
-

>  <cas>
1256388-51-8

>  <name>
LEDIPASVIR

>  <ID>
1731

>  <Smiles>
CC(C)[C@@H](C(N(CC1(CC1)C1)[C@@H]1c1ncc(-c(cc2)cc(C3(F)F)c2-c(cc2)c3cc2-c(cc2)cc3c2nc([C@H]([C@@H]2C[C@H]4CC2)N4C([C@H](C(C)C)NC(OC)=O)=O)[nH]3)[nH]1)=O)NC(OC)=O

$$$$
_c001
Actelion Java MolfileCreator 2.0

  0  0  0  0  0  0              0 V3000
M  V30 BEGIN CTAB
M  V30 COUNTS 27 26 0 0 0
M  V30 BEGIN ATOM
M  V30 1 P 22.0836 0.0 0.0 0 CFG=2
M  V30 2 O 22.8336 1.299 0.0 0
M  V30 3 O 23.3827 -0.75 0.0 0
M  V30 4 O 20.7846 -0.75 0.0 0
M  V30 5 O 21.3336 1.299 0.0 0 CHG=-1
M  V30 6 C 24.6817 0.0 0.0 0
M  V30 7 C 19.4856 0.0 0.0 0
M  V30 8 C 25.9808 -0.75 0.0 0
M  V30 9 C 18.1865 -0.75 0.0 0
M  V30 10 N 27.2798 0.0 0.0 0 CHG=1
M  V30 11 C 16.8875 0.0 0.0 0
M  V30 12 C 26.5298 1.299 0.0 0
M  V30 13 C 28.5788 0.75 0.0 0
M  V30 14 C 28.0298 -1.299 0.0 0
M  V30 15 C 15.5884 -0.75 0.0 0
M  V30 16 C 14.2894 0.0 0.0 0
M  V30 17 C 12.9904 -0.75 0.0 0
M  V30 18 C 11.6913 0.0 0.0 0
M  V30 19 C 10.3923 -0.75 0.0 0
M  V30 20 C 9.0932 0.0 0.0 0
M  V30 21 C 7.7942 -0.75 0.0 0
M  V30 22 C 6.4952 0.0 0.0 0
M  V30 23 C 5.1961 -0.75 0.0 0
M  V30 24 C 3.8971 0.0 0.0 0
M  V30 25 C 2.598 -0.75 0.0 0
M  V30 26 C 1.299 0.0 0.0 0
M  V30 27 C 0.0 -0.75 0.0 0
M  V30 END ATOM
M  V30 BEGIN BOND
M  V30 1 2 1 2
M  V30 2 1 1 3
M  V30 3 1 1 4
M  V30 4 1 1 5 CFG=1
M  V30 5 1 3 6
M  V30 6 1 4 7
M  V30 7 1 6 8
M  V30 8 1 7 9
M  V30 9 1 8 10
M  V30 10 1 9 11
M  V30 11 1 10 12
M  V30 12 1 10 13
M  V30 13 1 10 14
M  V30 14 1 11 15
M  V30 15 1 15 16
M  V30 16 1 16 17
M  V30 17 1 17 18
M  V30 18 1 18 19
M  V30 19 1 19 20
M  V30 20 1 20 21
M  V30 21 1 21 22
M  V30 22 1 22 23
M  V30 23 1 23 24
M  V30 24 1 24 25
M  V30 25 1 25 26
M  V30 26 1 26 27
M  V30 END BOND
M  V30 BEGIN COLLECTION
M  V30 MDLV30/STERAC1 ATOMS=(1 1)
M  V30 END COLLECTION
M  V30 END CTAB
M  END
>  <Molecule Name>
_c001

>  <status>
-

>  <cas>
58066-85-6

>  <name>
MILTEFOSINE

>  <ID>
1732

>  <Smiles>
CCCCCCCCCCCCCCCCOP([O-])(OCC[N+](C)(C)C)=O

$$$$
_c001
Actelion Java MolfileCreator 2.0

  0  0  0  0  0  0              0 V3000
M  V30 BEGIN CTAB
M  V30 COUNTS 65 70 0 0 0
M  V30 BEGIN ATOM
M  V30 1 O 3.9064 -5.8385 0.0 0
M  V30 2 C 4.9009 -5.943 0.0 0
M  V30 3 O 5.3076 -6.8566 0.0 0
M  V30 4 N 5.4887 -5.134 0.0 0
M  V30 5 C 4.7199 -7.6656 0.0 0
M  V30 6 C 5.082 -4.2205 0.0 0 CFG=2
M  V30 7 C 4.0874 -4.1159 0.0 0
M  V30 8 C 5.6697 -3.4114 0.0 0
M  V30 9 O 3.4997 -4.9249 0.0 0
M  V30 10 N 3.6807 -3.2024 0.0 0
M  V30 11 C 6.6643 -3.516 0.0 0
M  V30 12 C 5.263 -2.4979 0.0 0
M  V30 13 C 2.7026 -2.9945 0.0 0 CFG=2
M  V30 14 C 4.1807 -2.3364 0.0 0
M  V30 15 C 1.9594 -3.6636 0.0 0
M  V30 16 C 2.598 -1.9999 0.0 0
M  V30 17 C 3.5116 -1.5932 0.0 0
M  V30 18 O 2.1673 -4.6418 0.0 0
M  V30 19 N 1.0084 -3.3546 0.0 0
M  V30 20 C 0.2652 -4.0237 0.0 0
M  V30 21 C -0.6857 -3.7147 0.0 0
M  V30 22 C 0.4731 -5.0019 0.0 0
M  V30 23 C -1.4289 -4.3838 0.0 0
M  V30 24 C -0.2699 -5.671 0.0 0
M  V30 25 C -1.221 -5.362 0.0 0
M  V30 26 C -1.9641 -6.0311 0.0 0 CFG=1
M  V30 27 N -2.9423 -5.8232 0.0 0
M  V30 28 C -1.8596 -7.0256 0.0 0
M  V30 29 C -3.349 -4.9097 0.0 0
M  V30 30 C -3.4423 -6.6892 0.0 0 CFG=1
M  V30 31 C -2.7731 -7.4324 0.0 0
M  V30 32 C -2.7612 -4.1006 0.0 0
M  V30 33 C -4.3435 -4.8051 0.0 0
M  V30 34 C -4.4368 -6.7938 0.0 0
M  V30 35 C -3.168 -3.1871 0.0 0
M  V30 36 C -4.7503 -3.8916 0.0 0
M  V30 37 C -5.0246 -5.9847 0.0 0
M  V30 38 C -4.8435 -7.7073 0.0 0
M  V30 39 C -4.1625 -3.0826 0.0 0
M  V30 40 C -6.0191 -6.0893 0.0 0
M  V30 41 C -5.8381 -7.8118 0.0 0
M  V30 42 C -4.5692 -2.169 0.0 0
M  V30 43 C -6.4258 -7.0028 0.0 0
M  V30 44 C -5.4828 -2.5758 0.0 0
M  V30 45 C -4.976 -1.2555 0.0 0
M  V30 46 C -3.6557 -1.7623 0.0 0
M  V30 47 N -7.4204 -7.1073 0.0 0
M  V30 48 C -8.0081 -6.2983 0.0 0
M  V30 49 O -7.6014 -5.3848 0.0 0
M  V30 50 C -9.0027 -6.4028 0.0 0 CFG=1
M  V30 51 N -9.6718 -5.6597 0.0 0
M  V30 52 C -9.5027 -7.2689 0.0 0
M  V30 53 C -9.4639 -4.6816 0.0 0
M  V30 54 C -10.5853 -6.0664 0.0 0
M  V30 55 C -10.4808 -7.061 0.0 0
M  V30 56 O -8.5128 -4.3725 0.0 0
M  V30 57 C -10.207 -4.0124 0.0 0 CFG=1
M  V30 58 N -9.9991 -3.0343 0.0 0
M  V30 59 C -11.1581 -4.3214 0.0 0
M  V30 60 C -10.7423 -2.3651 0.0 0
M  V30 61 C -11.9012 -3.6523 0.0 0
M  V30 62 C -11.366 -5.2996 0.0 0
M  V30 63 O -11.6933 -2.6742 0.0 0
M  V30 64 O -10.5344 -1.387 0.0 0
M  V30 65 C -11.2775 -0.7179 0.0 0
M  V30 END ATOM
M  V30 BEGIN BOND
M  V30 1 2 1 2
M  V30 2 1 2 3
M  V30 3 1 2 4
M  V30 4 1 3 5
M  V30 5 1 6 4 CFG=3
M  V30 6 1 6 7
M  V30 7 1 6 8
M  V30 8 2 7 9
M  V30 9 1 7 10
M  V30 10 1 8 11
M  V30 11 1 8 12
M  V30 12 1 13 10
M  V30 13 1 10 14
M  V30 14 1 13 15 CFG=3
M  V30 15 1 13 16
M  V30 16 1 14 17
M  V30 17 2 15 18
M  V30 18 1 15 19
M  V30 19 1 19 20
M  V30 20 2 20 21
M  V30 21 1 20 22
M  V30 22 1 21 23
M  V30 23 2 22 24
M  V30 24 2 23 25
M  V30 25 1 26 25 CFG=3
M  V30 26 1 26 27
M  V30 27 1 26 28
M  V30 28 1 27 29
M  V30 29 1 30 27
M  V30 30 1 28 31
M  V30 31 2 29 32
M  V30 32 1 29 33
M  V30 33 1 30 34 CFG=1
M  V30 34 1 32 35
M  V30 35 2 33 36
M  V30 36 2 34 37
M  V30 37 1 34 38
M  V30 38 2 35 39
M  V30 39 1 37 40
M  V30 40 2 38 41
M  V30 41 1 39 42
M  V30 42 2 40 43
M  V30 43 1 42 44
M  V30 44 1 42 45
M  V30 45 1 42 46
M  V30 46 1 43 47
M  V30 47 1 47 48
M  V30 48 2 48 49
M  V30 49 1 50 48 CFG=3
M  V30 50 1 50 51
M  V30 51 1 50 52
M  V30 52 1 51 53
M  V30 53 1 51 54
M  V30 54 1 52 55
M  V30 55 2 53 56
M  V30 56 1 57 53
M  V30 57 1 57 58 CFG=3
M  V30 58 1 57 59
M  V30 59 1 58 60
M  V30 60 1 59 61
M  V30 61 1 59 62
M  V30 62 2 60 63
M  V30 63 1 60 64
M  V30 64 1 64 65
M  V30 65 1 16 17
M  V30 66 1 24 25
M  V30 67 1 30 31
M  V30 68 1 36 39
M  V30 69 1 41 43
M  V30 70 1 54 55
M  V30 END BOND
M  V30 BEGIN COLLECTION
M  V30 MDLV30/STERAC1 ATOMS=(6 6 13 26 30 50 57)
M  V30 END COLLECTION
M  V30 END CTAB
M  END
>  <Molecule Name>
_c001

>  <status>
-

>  <cas>
1258226-87-7

>  <name>
OMBITASVIR

>  <ID>
1733

>  <Smiles>
CC(C)[C@@H](C(N(CCC1)[C@@H]1C(Nc1ccc([C@H](CC[C@H]2c(cc3)ccc3NC([C@H](CCC3)N3C([C@H](C(C)C)NC(OC)=O)=O)=O)N2c2ccc(C(C)(C)C)cc2)cc1)=O)=O)NC(OC)=O

$$$$
_c001
Actelion Java MolfileCreator 2.0

  0  0  0  0  0  0              0 V3000
M  V30 BEGIN CTAB
M  V30 COUNTS 55 62 0 0 0
M  V30 BEGIN ATOM
M  V30 1 S 2.598 0.0 0.0 0
M  V30 2 O 3.098 0.866 0.0 0
M  V30 3 O 2.098 0.866 0.0 0
M  V30 4 N 1.732 -0.5 0.0 0
M  V30 5 C 3.4641 -0.5 0.0 0
M  V30 6 C 0.866 0.0 0.0 0
M  V30 7 C 3.9641 -1.366 0.0 0
M  V30 8 C 4.4641 -0.4999 0.0 0
M  V30 9 O 0.866 1.0 0.0 0
M  V30 10 C 0.0 -0.5 0.0 0 CFG=1
M  V30 11 N -0.5002 2.0417 0.0 0
M  V30 12 C -0.1931 -1.4811 0.0 0 CFG=2
M  V30 13 C 0.7531 -1.1578 0.0 0
M  V30 14 C -1.3303 1.4841 0.0 0
M  V30 15 C -1.3153 -4.3645 0.0 0
M  V30 16 O -1.2973 0.4846 0.0 0
M  V30 17 C -2.1954 1.9857 0.0 0 CFG=2
M  V30 18 C -2.2998 -4.189 0.0 0
M  V30 19 N -3.095 1.5491 0.0 0
M  V30 20 C -2.3327 2.9763 0.0 0
M  V30 21 C -2.7048 -3.2746 0.0 0
M  V30 22 C -3.2361 0.5591 0.0 0
M  V30 23 C -3.7883 2.2698 0.0 0
M  V30 24 C -3.3171 3.1518 0.0 0 CFG=1
M  V30 25 C -3.7041 -3.2378 0.0 0
M  V30 26 O -2.4713 -0.0851 0.0 0
M  V30 27 C -4.1877 0.2519 0.0 0 CFG=2
M  V30 28 O -3.7538 4.0514 0.0 0
M  V30 29 C -4.2324 -2.3888 0.0 0
M  V30 30 N -4.9057 0.9479 0.0 0
M  V30 31 C -4.4652 -0.7087 0.0 0
M  V30 32 C -3.193 4.8794 0.0 0
M  V30 33 C -3.8239 -1.476 0.0 0
M  V30 34 C -5.8675 0.6741 0.0 0
M  V30 35 N -3.6297 5.779 0.0 0
M  V30 36 C -2.1956 4.8077 0.0 0
M  V30 37 O -6.1113 -0.2956 0.0 0
M  V30 38 C -6.5855 1.3702 0.0 0
M  V30 39 C -3.0689 6.607 0.0 0
M  V30 40 C -1.6348 5.6357 0.0 0
M  V30 41 C -1.7589 3.9081 0.0 0
M  V30 42 N -7.5473 1.0964 0.0 0
M  V30 43 C -6.3418 2.34 0.0 0
M  V30 44 C -2.0715 6.5353 0.0 0
M  V30 45 C -3.5055 7.5066 0.0 0
M  V30 46 C -0.6374 5.564 0.0 0
M  V30 47 C -0.7615 3.8364 0.0 0
M  V30 48 C -8.2653 1.7924 0.0 0
M  V30 49 N -7.0598 3.036 0.0 0
M  V30 50 C -1.5107 7.3633 0.0 0
M  V30 51 C -2.9448 8.3346 0.0 0
M  V30 52 C -0.2007 4.6644 0.0 0
M  V30 53 C -8.0216 2.7622 0.0 0
M  V30 54 C -1.9473 8.2629 0.0 0
M  V30 55 C -8.7396 3.4583 0.0 0
M  V30 END ATOM
M  V30 BEGIN BOND
M  V30 1 2 1 2
M  V30 2 2 1 3
M  V30 3 1 1 4
M  V30 4 1 1 5
M  V30 5 1 4 6
M  V30 6 1 5 7
M  V30 7 1 5 8
M  V30 8 2 6 9
M  V30 9 1 10 6 CFG=3
M  V30 10 1 10 11
M  V30 11 1 12 10
M  V30 12 1 10 13
M  V30 13 1 11 14
M  V30 14 1 12 15 CFG=3
M  V30 15 2 14 16
M  V30 16 1 17 14
M  V30 17 2 15 18
M  V30 18 1 17 19 CFG=3
M  V30 19 1 17 20
M  V30 20 1 18 21
M  V30 21 1 19 22
M  V30 22 1 19 23
M  V30 23 1 24 20
M  V30 24 1 21 25
M  V30 25 2 22 26
M  V30 26 1 27 22
M  V30 27 1 24 28 CFG=1
M  V30 28 1 25 29
M  V30 29 1 27 30 CFG=1
M  V30 30 1 27 31
M  V30 31 1 28 32
M  V30 32 1 29 33
M  V30 33 1 30 34
M  V30 34 2 32 35
M  V30 35 1 32 36
M  V30 36 2 34 37
M  V30 37 1 34 38
M  V30 38 1 35 39
M  V30 39 1 36 40
M  V30 40 2 36 41
M  V30 41 2 38 42
M  V30 42 1 38 43
M  V30 43 1 39 44
M  V30 44 2 39 45
M  V30 45 2 40 46
M  V30 46 1 41 47
M  V30 47 1 42 48
M  V30 48 2 43 49
M  V30 49 2 44 50
M  V30 50 1 45 51
M  V30 51 1 46 52
M  V30 52 2 48 53
M  V30 53 1 50 54
M  V30 54 1 53 55
M  V30 55 1 7 8
M  V30 56 1 12 13
M  V30 57 1 23 24
M  V30 58 1 31 33
M  V30 59 1 40 44
M  V30 60 2 47 52
M  V30 61 1 49 53
M  V30 62 2 51 54
M  V30 END BOND
M  V30 BEGIN COLLECTION
M  V30 MDLV30/STERAC1 ATOMS=(5 10 12 17 24 27)
M  V30 END COLLECTION
M  V30 END CTAB
M  END
>  <Molecule Name>
_c001

>  <status>
-

>  <cas>
1216941-48-8

>  <name>
PARITAPREVIR

>  <ID>
1734

>  <Smiles>
Cc(nc1)cnc1C(N[C@H](CCCCC/C=C\[C@@H](C1)[C@@]1(C(NS(C1CC1)(=O)=O)=O)NC([C@@H](C1)N2C[C@H]1Oc1nc3ccccc3c3ccccc13)=O)C2=O)=O

$$$$
_c001
Actelion Java MolfileCreator 2.0

  0  0  0  0  0  0              0 V3000
M  V30 BEGIN CTAB
M  V30 COUNTS 35 38 0 0 0
M  V30 BEGIN ATOM
M  V30 1 S 1.732 -0.5 0.0 0
M  V30 2 O 1.232 -1.366 0.0 0
M  V30 3 O 2.232 0.366 0.0 0
M  V30 4 N 0.866 0.0 0.0 0
M  V30 5 C 2.598 -0.9999 0.0 0
M  V30 6 C 0.0 -0.5 0.0 0
M  V30 7 C -0.866 0.0 0.0 0
M  V30 8 C 0.0 -1.4999 0.0 0
M  V30 9 C -1.732 -0.4999 0.0 0
M  V30 10 C -0.866 -1.9999 0.0 0
M  V30 11 C -1.732 -1.4999 0.0 0
M  V30 12 C -2.598 0.0 0.0 0
M  V30 13 C -2.598 -1.9999 0.0 0
M  V30 14 C -3.4641 -0.4999 0.0 0
M  V30 15 C -3.4641 -1.4999 0.0 0
M  V30 16 C -4.3301 -1.9999 0.0 0
M  V30 17 C -5.1961 -1.4999 0.0 0
M  V30 18 C -4.3301 -2.9999 0.0 0
M  V30 19 O -5.1961 -0.4999 0.0 0
M  V30 20 C -6.0621 -1.9999 0.0 0
M  V30 21 C -5.1961 -3.4999 0.0 0
M  V30 22 C -4.3301 0.0 0.0 0
M  V30 23 C -6.0621 -2.9999 0.0 0
M  V30 24 C -6.9282 -1.4999 0.0 0
M  V30 25 N -5.1961 -4.4999 0.0 0
M  V30 26 C -7.4282 -2.366 0.0 0
M  V30 27 C -7.7942 -0.9999 0.0 0
M  V30 28 C -6.4282 -0.6339 0.0 0
M  V30 29 C -6.0621 -4.9999 0.0 0
M  V30 30 C -4.3301 -4.9999 0.0 0
M  V30 31 O -6.9282 -4.4999 0.0 0
M  V30 32 N -6.0621 -5.9999 0.0 0
M  V30 33 C -4.3301 -5.9999 0.0 0
M  V30 34 C -5.1961 -6.4999 0.0 0
M  V30 35 O -5.1961 -7.4999 0.0 0
M  V30 END ATOM
M  V30 BEGIN BOND
M  V30 1 2 1 2
M  V30 2 2 1 3
M  V30 3 1 1 4
M  V30 4 1 1 5
M  V30 5 1 4 6
M  V30 6 2 6 7
M  V30 7 1 6 8
M  V30 8 1 7 9
M  V30 9 2 8 10
M  V30 10 1 9 11
M  V30 11 2 9 12
M  V30 12 2 11 13
M  V30 13 1 12 14
M  V30 14 1 13 15
M  V30 15 1 15 16
M  V30 16 2 16 17
M  V30 17 1 16 18
M  V30 18 1 17 19
M  V30 19 1 17 20
M  V30 20 2 18 21
M  V30 21 1 19 22
M  V30 22 2 20 23
M  V30 23 1 20 24
M  V30 24 1 21 25
M  V30 25 1 24 26
M  V30 26 1 24 27
M  V30 27 1 24 28
M  V30 28 1 25 29
M  V30 29 1 25 30
M  V30 30 2 29 31
M  V30 31 1 29 32
M  V30 32 2 30 33
M  V30 33 1 32 34
M  V30 34 2 34 35
M  V30 35 1 10 11
M  V30 36 2 14 15
M  V30 37 1 21 23
M  V30 38 1 33 34
M  V30 END BOND
M  V30 END CTAB
M  END
>  <Molecule Name>
_c001

>  <status>
-

>  <cas>
1132935-63-7

>  <name>
DASABUVIR

>  <ID>
1735

>  <Smiles>
CC(C)(C)c1cc(N(C=CC(N2)=O)C2=O)cc(-c2ccc(cc(cc3)NS(C)(=O)=O)c3c2)c1OC

$$$$
_c001
Actelion Java MolfileCreator 2.0

  0  0  0  0  0  0              0 V3000
M  V30 BEGIN CTAB
M  V30 COUNTS 18 20 0 0 0
M  V30 BEGIN ATOM
M  V30 1 O 2.598 1.0 0.0 0
M  V30 2 C 2.598 0.0 0.0 0
M  V30 3 N 1.732 -0.5 0.0 0
M  V30 4 C 3.4641 -0.5 0.0 0
M  V30 5 C 0.866 0.0 0.0 0
M  V30 6 C 4.3301 0.0 0.0 0
M  V30 7 C 0.0 -0.5 0.0 0 CFG=2
M  V30 8 C -1.0 -0.4999 0.0 0 CFG=2
M  V30 9 C -0.5 -1.366 0.0 0
M  V30 10 C -1.866 0.0 0.0 0
M  V30 11 C -2.732 -0.4999 0.0 0
M  V30 12 C -1.866 1.0 0.0 0
M  V30 13 C -3.598 0.0 0.0 0
M  V30 14 C -2.9399 -1.4781 0.0 0
M  V30 15 C -2.732 1.5 0.0 0
M  V30 16 O -4.3412 -0.6691 0.0 0
M  V30 17 C -3.598 1.0 0.0 0
M  V30 18 C -3.9344 -1.5826 0.0 0
M  V30 END ATOM
M  V30 BEGIN BOND
M  V30 1 2 1 2
M  V30 2 1 2 3
M  V30 3 1 2 4
M  V30 4 1 3 5
M  V30 5 1 4 6
M  V30 6 1 7 5 CFG=1
M  V30 7 1 8 7
M  V30 8 1 7 9
M  V30 9 1 8 10 CFG=3
M  V30 10 2 10 11
M  V30 11 1 10 12
M  V30 12 1 11 13
M  V30 13 1 11 14
M  V30 14 2 12 15
M  V30 15 1 13 16
M  V30 16 2 13 17
M  V30 17 1 14 18
M  V30 18 1 8 9
M  V30 19 1 15 17
M  V30 20 1 16 18
M  V30 END BOND
M  V30 BEGIN COLLECTION
M  V30 MDLV30/STERAC1 ATOMS=(2 7 8)
M  V30 END COLLECTION
M  V30 END CTAB
M  END
>  <Molecule Name>
_c001

>  <status>
-

>  <cas>
609799-22-6

>  <name>
TASIMELTEON

>  <ID>
1736

>  <Smiles>
CCC(NC[C@@H](C1)[C@H]1c1c(CCO2)c2ccc1)=O

$$$$
_c001
Actelion Java MolfileCreator 2.0

  0  0  0  0  0  0              0 V3000
M  V30 BEGIN CTAB
M  V30 COUNTS 32 36 0 0 0
M  V30 BEGIN ATOM
M  V30 1 F 2.598 1.0 0.0 0
M  V30 2 C 2.598 0.0 0.0 0
M  V30 3 C 1.732 -0.5 0.0 0
M  V30 4 C 3.4641 -0.4999 0.0 0
M  V30 5 C 0.866 0.0 0.0 0
M  V30 6 C 1.732 -1.5 0.0 0
M  V30 7 C 3.4641 -1.4999 0.0 0
M  V30 8 O 0.866 1.0 0.0 0
M  V30 9 N 0.0 -0.5 0.0 0
M  V30 10 C 2.598 -1.9999 0.0 0
M  V30 11 C -0.866 0.0 0.0 0
M  V30 12 C 0.0 -1.4999 0.0 0
M  V30 13 C 2.598 -2.9999 0.0 0
M  V30 14 C -1.732 -0.4999 0.0 0
M  V30 15 C -0.866 -1.9999 0.0 0
M  V30 16 C 3.4641 -3.4999 0.0 0
M  V30 17 N -1.732 -1.4999 0.0 0
M  V30 18 N 3.4641 -4.4999 0.0 0
M  V30 19 C 4.3301 -2.9999 0.0 0
M  V30 20 C -2.598 -1.9999 0.0 0
M  V30 21 N 4.3301 -4.9999 0.0 0
M  V30 22 C 5.1961 -3.4999 0.0 0
M  V30 23 C 4.3301 -1.9999 0.0 0
M  V30 24 O -3.4641 -1.4999 0.0 0
M  V30 25 C -2.598 -2.9999 0.0 0
M  V30 26 C 5.1961 -4.4999 0.0 0
M  V30 27 C 6.0621 -2.9999 0.0 0
M  V30 28 C 5.1961 -1.4999 0.0 0
M  V30 29 C -3.098 -3.866 0.0 0
M  V30 30 C -2.098 -3.866 0.0 0
M  V30 31 O 6.0621 -4.9999 0.0 0
M  V30 32 C 6.0621 -1.9999 0.0 0
M  V30 END ATOM
M  V30 BEGIN BOND
M  V30 1 1 1 2
M  V30 2 2 2 3
M  V30 3 1 2 4
M  V30 4 1 3 5
M  V30 5 1 3 6
M  V30 6 2 4 7
M  V30 7 2 5 8
M  V30 8 1 5 9
M  V30 9 2 6 10
M  V30 10 1 9 11
M  V30 11 1 9 12
M  V30 12 1 10 13
M  V30 13 1 11 14
M  V30 14 1 12 15
M  V30 15 1 13 16
M  V30 16 1 14 17
M  V30 17 2 16 18
M  V30 18 1 16 19
M  V30 19 1 17 20
M  V30 20 1 18 21
M  V30 21 2 19 22
M  V30 22 1 19 23
M  V30 23 2 20 24
M  V30 24 1 20 25
M  V30 25 1 21 26
M  V30 26 1 22 27
M  V30 27 2 23 28
M  V30 28 1 25 29
M  V30 29 1 25 30
M  V30 30 2 26 31
M  V30 31 2 27 32
M  V30 32 1 7 10
M  V30 33 1 15 17
M  V30 34 1 22 26
M  V30 35 1 28 32
M  V30 36 1 29 30
M  V30 END BOND
M  V30 END CTAB
M  END
>  <Molecule Name>
_c001

>  <status>
-

>  <cas>
763113-22-0

>  <name>
OLAPARIB

>  <ID>
1737

>  <Smiles>
O=C(C1CC1)N(CC1)CCN1C(c(cc(CC(c1c2cccc1)=NNC2=O)cc1)c1F)=O

$$$$
_c001
Actelion Java MolfileCreator 2.0

  0  0  0  0  0  0              0 V3000
M  V30 BEGIN CTAB
M  V30 COUNTS 38 41 0 0 0
M  V30 BEGIN ATOM
M  V30 1 Cl 0.0 3.75 0.0 0
M  V30 2 C 1.299 4.5 0.0 0
M  V30 3 C 2.598 3.75 0.0 0
M  V30 4 C 1.299 6.0 0.0 0
M  V30 5 N 3.8971 4.5 0.0 0
M  V30 6 N 2.598 2.25 0.0 0
M  V30 7 N 2.598 6.75 0.0 0
M  V30 8 C 3.8971 6.0 0.0 0
M  V30 9 C 3.8971 1.5 0.0 0
M  V30 10 N 5.1961 6.75 0.0 0
M  V30 11 C 3.8971 0.0 0.0 0
M  V30 12 C 5.1961 2.25 0.0 0
M  V30 13 C 5.1961 8.25 0.0 0
M  V30 14 S 2.598 -0.75 0.0 0
M  V30 15 C 5.1961 -0.75 0.0 0
M  V30 16 C 6.4951 1.5 0.0 0
M  V30 17 C 6.4951 9.0 0.0 0
M  V30 18 C 3.8971 9.0 0.0 0
M  V30 19 O 1.848 -2.049 0.0 0
M  V30 20 O 3.348 -2.049 0.0 0
M  V30 21 C 1.299 0.0 0.0 0
M  V30 22 C 6.4951 0.0 0.0 0
M  V30 23 O 7.7942 8.25 0.0 0
M  V30 24 C 6.4951 10.5 0.0 0
M  V30 25 C 3.8971 10.5 0.0 0
M  V30 26 C 1.299 1.5 0.0 0
M  V30 27 C 0.0 -0.75 0.0 0
M  V30 28 C 7.7942 6.75 0.0 0
M  V30 29 C 5.1961 11.25 0.0 0
M  V30 30 C 2.598 11.25 0.0 0
M  V30 31 C 6.4951 6.0 0.0 0
M  V30 32 C 9.0932 6.0 0.0 0
M  V30 33 C 5.1961 12.75 0.0 0
M  V30 34 C 6.4951 13.5 0.0 0
M  V30 35 C 3.8971 13.5 0.0 0
M  V30 36 C 6.4951 15.0 0.0 0
M  V30 37 C 3.8971 15.0 0.0 0
M  V30 38 N 5.1961 15.75 0.0 0
M  V30 END ATOM
M  V30 BEGIN BOND
M  V30 1 1 1 2
M  V30 2 2 2 3
M  V30 3 1 2 4
M  V30 4 1 3 5
M  V30 5 1 3 6
M  V30 6 2 4 7
M  V30 7 2 5 8
M  V30 8 1 6 9
M  V30 9 1 8 10
M  V30 10 2 9 11
M  V30 11 1 9 12
M  V30 12 1 10 13
M  V30 13 1 11 14
M  V30 14 1 11 15
M  V30 15 2 12 16
M  V30 16 2 13 17
M  V30 17 1 13 18
M  V30 18 2 14 19
M  V30 19 2 14 20
M  V30 20 1 14 21
M  V30 21 2 15 22
M  V30 22 1 17 23
M  V30 23 1 17 24
M  V30 24 2 18 25
M  V30 25 1 21 26
M  V30 26 1 21 27
M  V30 27 1 23 28
M  V30 28 2 24 29
M  V30 29 1 25 30
M  V30 30 1 28 31
M  V30 31 1 28 32
M  V30 32 1 29 33
M  V30 33 1 33 34
M  V30 34 1 33 35
M  V30 35 1 34 36
M  V30 36 1 35 37
M  V30 37 1 36 38
M  V30 38 1 7 8
M  V30 39 1 16 22
M  V30 40 1 25 29
M  V30 41 1 37 38
M  V30 END BOND
M  V30 END CTAB
M  END
>  <Molecule Name>
_c001

>  <status>
-

>  <cas>
1032900-25-6

>  <name>
CERITINIB

>  <ID>
1738

>  <Smiles>
CC(C)Oc(cc(C1CCNCC1)c(C)c1)c1Nc(nc1)nc(Nc(cccc2)c2S(C(C)C)(=O)=O)c1Cl

$$$$
_c001
Actelion Java MolfileCreator 2.0

  0  0  0  0  0  0              0 V3000
M  V30 BEGIN CTAB
M  V30 COUNTS 14 15 0 0 0
M  V30 BEGIN ATOM
M  V30 1 O 1.299 0.0 0.0 0
M  V30 2 C 0.0 -0.75 0.0 0
M  V30 3 N -1.299 0.0 0.0 0
M  V30 4 C 0.0 -2.2499 0.0 0
M  V30 5 C -1.299 1.5 0.0 0
M  V30 6 C -2.598 -0.7499 0.0 0
M  V30 7 C -1.299 -2.9999 0.0 0
M  V30 8 C 0.0 2.2499 0.0 0
M  V30 9 C -2.598 2.25 0.0 0
M  V30 10 C -2.598 -2.2499 0.0 0
M  V30 11 C 0.0 3.7499 0.0 0
M  V30 12 C -2.598 3.75 0.0 0
M  V30 13 C -3.8971 -2.9999 0.0 0
M  V30 14 C -1.299 4.5 0.0 0
M  V30 END ATOM
M  V30 BEGIN BOND
M  V30 1 2 1 2
M  V30 2 1 2 3
M  V30 3 1 2 4
M  V30 4 1 3 5
M  V30 5 1 3 6
M  V30 6 2 4 7
M  V30 7 2 5 8
M  V30 8 1 5 9
M  V30 9 2 6 10
M  V30 10 1 8 11
M  V30 11 2 9 12
M  V30 12 1 10 13
M  V30 13 2 11 14
M  V30 14 1 7 10
M  V30 15 1 12 14
M  V30 END BOND
M  V30 END CTAB
M  END
>  <Molecule Name>
_c001

>  <status>
-

>  <cas>
53179-13-8

>  <name>
PIRFENIDONE

>  <ID>
1739

>  <Smiles>
CC(C=C1)=CN(c2ccccc2)C1=O

$$$$
_c001
Actelion Java MolfileCreator 2.0

  0  0  0  0  0  0              0 V3000
M  V30 BEGIN CTAB
M  V30 COUNTS 40 44 0 0 0
M  V30 BEGIN ATOM
M  V30 1 O 8.0496 -2.1151 0.0 0
M  V30 2 C 7.8417 -3.0932 0.0 0
M  V30 3 N 8.5108 -3.8364 0.0 0
M  V30 4 C 6.9282 -3.5 0.0 0
M  V30 5 C 8.0108 -4.7024 0.0 0
M  V30 6 C 7.0327 -4.4945 0.0 0
M  V30 7 C 6.0621 -3.0 0.0 0
M  V30 8 C 8.3198 -5.6534 0.0 0
M  V30 9 C 6.3636 -5.2376 0.0 0
M  V30 10 N 6.0621 -1.9999 0.0 0
M  V30 11 C 5.1961 -3.5 0.0 0
M  V30 12 C 7.6507 -6.3966 0.0 0
M  V30 13 C 6.6726 -6.1887 0.0 0
M  V30 14 C 5.1961 -1.4999 0.0 0
M  V30 15 C 4.3301 -2.9999 0.0 0
M  V30 16 C 5.1961 -4.5 0.0 0
M  V30 17 C 7.9597 -7.3476 0.0 0
M  V30 18 C 5.1961 -0.5 0.0 0
M  V30 19 C 4.3301 -1.9999 0.0 0
M  V30 20 C 3.4641 -3.4999 0.0 0
M  V30 21 C 4.3301 -4.9999 0.0 0
M  V30 22 O 7.2906 -8.0908 0.0 0
M  V30 23 O 8.9379 -7.5556 0.0 0
M  V30 24 C 4.3301 0.0 0.0 0
M  V30 25 C 3.4641 -1.5 0.0 0
M  V30 26 C 3.4641 -4.4999 0.0 0
M  V30 27 C 9.2469 -8.5066 0.0 0
M  V30 28 C 3.4641 -0.5 0.0 0
M  V30 29 N 2.598 0.0 0.0 0
M  V30 30 C 1.732 -0.5 0.0 0
M  V30 31 C 2.598 1.0 0.0 0
M  V30 32 O 1.732 -1.5 0.0 0
M  V30 33 C 0.866 0.0 0.0 0
M  V30 34 N 0.0 -0.5 0.0 0
M  V30 35 C -0.866 0.0 0.0 0
M  V30 36 C 0.0 -1.4999 0.0 0
M  V30 37 C -1.732 -0.4999 0.0 0
M  V30 38 C -0.866 -1.9999 0.0 0
M  V30 39 N -1.732 -1.4999 0.0 0
M  V30 40 C -2.598 -1.9999 0.0 0
M  V30 END ATOM
M  V30 BEGIN BOND
M  V30 1 2 1 2
M  V30 2 1 2 3
M  V30 3 1 2 4
M  V30 4 1 3 5
M  V30 5 1 4 6
M  V30 6 2 4 7
M  V30 7 1 5 8
M  V30 8 1 6 9
M  V30 9 1 7 10
M  V30 10 1 7 11
M  V30 11 2 8 12
M  V30 12 2 9 13
M  V30 13 1 10 14
M  V30 14 2 11 15
M  V30 15 1 11 16
M  V30 16 1 12 17
M  V30 17 2 14 18
M  V30 18 1 14 19
M  V30 19 1 15 20
M  V30 20 2 16 21
M  V30 21 2 17 22
M  V30 22 1 17 23
M  V30 23 1 18 24
M  V30 24 2 19 25
M  V30 25 2 20 26
M  V30 26 1 23 27
M  V30 27 2 24 28
M  V30 28 1 28 29
M  V30 29 1 29 30
M  V30 30 1 29 31
M  V30 31 2 30 32
M  V30 32 1 30 33
M  V30 33 1 33 34
M  V30 34 1 34 35
M  V30 35 1 34 36
M  V30 36 1 35 37
M  V30 37 1 36 38
M  V30 38 1 37 39
M  V30 39 1 39 40
M  V30 40 2 5 6
M  V30 41 1 12 13
M  V30 42 1 21 26
M  V30 43 1 25 28
M  V30 44 1 38 39
M  V30 END BOND
M  V30 END CTAB
M  END
>  <Molecule Name>
_c001

>  <status>
-

>  <cas>
656247-17-5

>  <name>
NINTEDANIB

>  <ID>
1740

>  <Smiles>
CN(C(CN1CCN(C)CC1)=O)c(cc1)ccc1N/C(/c1ccccc1)=C(/c(ccc(C(OC)=O)c1)c1N1)\C1=O

$$$$
_c001
Actelion Java MolfileCreator 2.0

  0  0  0  0  0  0              0 V3000
M  V30 BEGIN CTAB
M  V30 COUNTS 28 30 0 0 0
M  V30 BEGIN ATOM
M  V30 1 O 7.7942 -6.75 0.0 0
M  V30 2 C 7.7942 -5.25 0.0 0
M  V30 3 N 9.0932 -4.5 0.0 0
M  V30 4 C 6.4952 -4.5 0.0 0
M  V30 5 C 9.0932 -3.0 0.0 0
M  V30 6 O 6.4952 -3.0 0.0 0
M  V30 7 C 7.7942 -2.25 0.0 0
M  V30 8 C 10.3923 -2.25 0.0 0
M  V30 9 C 7.7942 -0.75 0.0 0
M  V30 10 C 10.3923 -0.75 0.0 0
M  V30 11 C 9.0932 0.0 0.0 0
M  V30 12 C 6.4952 0.0 0.0 0 CFG=1
M  V30 13 O 11.6913 0.0 0.0 0
M  V30 14 O 6.4952 1.5 0.0 0
M  V30 15 C 5.1961 -0.75 0.0 0
M  V30 16 N 3.8971 0.0 0.0 0
M  V30 17 C 2.598 -0.75 0.0 0
M  V30 18 C 1.299 0.0 0.0 0
M  V30 19 C 1.848 -2.049 0.0 0
M  V30 20 C 3.348 -2.049 0.0 0
M  V30 21 C 0.0 -0.75 0.0 0
M  V30 22 C -1.299 0.0 0.0 0
M  V30 23 C 0.0 -2.25 0.0 0
M  V30 24 C -2.598 -0.75 0.0 0
M  V30 25 C -1.299 -3.0 0.0 0
M  V30 26 C -2.598 -2.25 0.0 0
M  V30 27 O -3.8971 -3.0 0.0 0
M  V30 28 C -3.8971 -4.5 0.0 0
M  V30 END ATOM
M  V30 BEGIN BOND
M  V30 1 2 1 2
M  V30 2 1 2 3
M  V30 3 1 2 4
M  V30 4 1 3 5
M  V30 5 1 4 6
M  V30 6 2 5 7
M  V30 7 1 5 8
M  V30 8 1 7 9
M  V30 9 2 8 10
M  V30 10 2 9 11
M  V30 11 1 12 9
M  V30 12 1 10 13
M  V30 13 1 12 14 CFG=3
M  V30 14 1 12 15
M  V30 15 1 15 16
M  V30 16 1 16 17
M  V30 17 1 17 18
M  V30 18 1 17 19
M  V30 19 1 17 20
M  V30 20 1 18 21
M  V30 21 2 21 22
M  V30 22 1 21 23
M  V30 23 1 22 24
M  V30 24 2 23 25
M  V30 25 2 24 26
M  V30 26 1 26 27
M  V30 27 1 27 28
M  V30 28 1 6 7
M  V30 29 1 10 11
M  V30 30 1 25 26
M  V30 END BOND
M  V30 BEGIN COLLECTION
M  V30 MDLV30/STERAC1 ATOMS=(1 12)
M  V30 END COLLECTION
M  V30 END CTAB
M  END
>  <Molecule Name>
_c001

>  <status>
-

>  <cas>
868049-49-4

>  <name>
OLODATEROL

>  <ID>
1741

>  <Smiles>
CC(C)(Cc(cc1)ccc1OC)NCC(c1cc(O)cc(N2)c1OCC2=O)O

$$$$
_c001
Actelion Java MolfileCreator 2.0

  0  0  0  0  0  0              0 V3000
M  V30 BEGIN CTAB
M  V30 COUNTS 37 40 0 0 0
M  V30 BEGIN ATOM
M  V30 1 Cl 6.9282 1.4999 0.0 0
M  V30 2 C 6.0621 0.9999 0.0 0
M  V30 3 C 5.1961 1.4999 0.0 0
M  V30 4 C 6.0621 0.0 0.0 0
M  V30 5 N 4.3301 0.9999 0.0 0
M  V30 6 C 5.1961 -0.5 0.0 0
M  V30 7 C 4.3301 0.0 0.0 0
M  V30 8 N 3.4641 -0.5 0.0 0
M  V30 9 C 2.598 0.0 0.0 0
M  V30 10 O 2.598 1.0 0.0 0
M  V30 11 C 1.732 -0.5 0.0 0
M  V30 12 O 1.732 -1.5 0.0 0
M  V30 13 N 0.866 0.0 0.0 0
M  V30 14 C 0.0 -0.5 0.0 0 CFG=1
M  V30 15 C -0.866 0.0 0.0 0 CFG=1
M  V30 16 C 0.0 -1.4999 0.0 0
M  V30 17 N -0.866 1.0 0.0 0
M  V30 18 C -1.732 -0.4999 0.0 0
M  V30 19 C -0.866 -1.9999 0.0 0
M  V30 20 C 0.0 1.5 0.0 0
M  V30 21 C -1.732 -1.4999 0.0 0 CFG=1
M  V30 22 O 0.866 0.9999 0.0 0
M  V30 23 C 0.0 2.5 0.0 0
M  V30 24 C -2.598 -1.9999 0.0 0
M  V30 25 S 0.809 3.0877 0.0 0
M  V30 26 N -0.809 3.0877 0.0 0
M  V30 27 O -2.598 -2.9999 0.0 0
M  V30 28 N -3.4641 -1.4999 0.0 0
M  V30 29 C 0.5 4.0388 0.0 0
M  V30 30 C -0.4999 4.0388 0.0 0
M  V30 31 C -3.4641 -0.4999 0.0 0
M  V30 32 C -4.3301 -1.9999 0.0 0
M  V30 33 C 1.0 4.9048 0.0 0
M  V30 34 C -0.9999 4.9048 0.0 0
M  V30 35 N 0.5 5.7708 0.0 0
M  V30 36 C -0.4999 5.7708 0.0 0
M  V30 37 C 1.0 6.6369 0.0 0
M  V30 END ATOM
M  V30 BEGIN BOND
M  V30 1 1 1 2
M  V30 2 2 2 3
M  V30 3 1 2 4
M  V30 4 1 3 5
M  V30 5 2 4 6
M  V30 6 2 5 7
M  V30 7 1 7 8
M  V30 8 1 8 9
M  V30 9 2 9 10
M  V30 10 1 9 11
M  V30 11 2 11 12
M  V30 12 1 11 13
M  V30 13 1 14 13 CFG=3
M  V30 14 1 15 14
M  V30 15 1 14 16
M  V30 16 1 15 17 CFG=3
M  V30 17 1 15 18
M  V30 18 1 16 19
M  V30 19 1 17 20
M  V30 20 1 21 18
M  V30 21 2 20 22
M  V30 22 1 20 23
M  V30 23 1 21 24 CFG=1
M  V30 24 1 23 25
M  V30 25 2 23 26
M  V30 26 2 24 27
M  V30 27 1 24 28
M  V30 28 1 25 29
M  V30 29 1 26 30
M  V30 30 1 28 31
M  V30 31 1 28 32
M  V30 32 1 29 33
M  V30 33 1 30 34
M  V30 34 1 33 35
M  V30 35 1 34 36
M  V30 36 1 35 37
M  V30 37 1 6 7
M  V30 38 1 19 21
M  V30 39 2 29 30
M  V30 40 1 35 36
M  V30 END BOND
M  V30 BEGIN COLLECTION
M  V30 MDLV30/STERAC1 ATOMS=(3 14 15 21)
M  V30 END COLLECTION
M  V30 END CTAB
M  END
>  <Molecule Name>
_c001

>  <status>
-

>  <cas>
480449-70-5

>  <name>
EDOXABAN

>  <ID>
1742

>  <Smiles>
CN(C)C([C@H](CC[C@H]1NC(C(Nc(cc2)ncc2Cl)=O)=O)C[C@@H]1NC(c1nc(CCN(C)C2)c2s1)=O)=O

$$$$
_c001
Actelion Java MolfileCreator 2.0

  0  0  0  0  0  0              0 V3000
M  V30 BEGIN CTAB
M  V30 COUNTS 17 18 0 0 0
M  V30 BEGIN ATOM
M  V30 1 S 1.732 -0.5 0.0 0
M  V30 2 O 1.232 -1.366 0.0 0
M  V30 3 O 2.232 0.366 0.0 0
M  V30 4 O 0.866 0.0 0.0 0
M  V30 5 O 2.598 -0.9999 0.0 0
M  V30 6 N 0.0 -0.5 0.0 0
M  V30 7 C -0.9135 -0.0932 0.0 0
M  V30 8 C -0.1045 -1.4945 0.0 0 CFG=2
M  V30 9 O -1.1214 0.8848 0.0 0
M  V30 10 N -1.5826 -0.8364 0.0 0
M  V30 11 C -0.6066 -2.7625 0.0 0
M  V30 12 C -1.0826 -1.7024 0.0 0
M  V30 13 C -2.1889 -2.058 0.0 0 CFG=1
M  V30 14 C -1.6011 -2.867 0.0 0
M  V30 15 C -3.1854 -2.1417 0.0 0
M  V30 16 O -3.7562 -1.3206 0.0 0
M  V30 17 N -3.6112 -3.0465 0.0 0
M  V30 END ATOM
M  V30 BEGIN BOND
M  V30 1 2 1 2
M  V30 2 2 1 3
M  V30 3 1 1 4
M  V30 4 1 1 5
M  V30 5 1 4 6
M  V30 6 1 6 7
M  V30 7 1 8 6 CFG=3
M  V30 8 2 7 9
M  V30 9 1 7 10
M  V30 10 1 8 11
M  V30 11 1 8 12
M  V30 12 1 13 10
M  V30 13 1 11 14
M  V30 14 1 13 15 CFG=1
M  V30 15 2 15 16
M  V30 16 1 15 17
M  V30 17 1 10 12
M  V30 18 1 13 14
M  V30 END BOND
M  V30 BEGIN COLLECTION
M  V30 MDLV30/STERAC1 ATOMS=(2 8 13)
M  V30 END COLLECTION
M  V30 END CTAB
M  END
>  <Molecule Name>
_c001

>  <status>
-

>  <cas>
1192500-31-4

>  <name>
AVIBACTAM

>  <ID>
1743

>  <Smiles>
NC([C@H](CC[C@H](C1)N2OS(O)(=O)=O)N1C2=O)=O

$$$$
_c001
Actelion Java MolfileCreator 2.0

  0  0  0  0  0  0              0 V3000
M  V30 BEGIN CTAB
M  V30 COUNTS 26 28 0 0 0
M  V30 BEGIN ATOM
M  V30 1 O 8.6602 2.4999 0.0 0
M  V30 2 C 8.6602 1.4999 0.0 0
M  V30 3 N 9.5262 0.9999 0.0 0
M  V30 4 C 7.7942 0.9999 0.0 0
M  V30 5 O 10.3923 1.4999 0.0 0
M  V30 6 C 6.9282 1.4999 0.0 0
M  V30 7 C 6.0621 0.9999 0.0 0
M  V30 8 C 5.1961 1.4999 0.0 0
M  V30 9 C 6.0621 0.0 0.0 0
M  V30 10 C 4.3301 0.9999 0.0 0
M  V30 11 C 5.1961 -0.5 0.0 0
M  V30 12 C 4.3301 0.0 0.0 0
M  V30 13 C 3.4641 -0.5 0.0 0
M  V30 14 N 2.598 0.0 0.0 0
M  V30 15 C 1.732 -0.5 0.0 0
M  V30 16 C 0.866 0.0 0.0 0
M  V30 17 C 0.0 -0.5 0.0 0
M  V30 18 C -0.9135 -0.0932 0.0 0
M  V30 19 C -0.1045 -1.4945 0.0 0
M  V30 20 C -1.5826 -0.8364 0.0 0
M  V30 21 C -1.2225 0.8577 0.0 0
M  V30 22 N -1.0826 -1.7024 0.0 0
M  V30 23 C 0.6386 -2.1636 0.0 0
M  V30 24 C -2.5608 -0.6284 0.0 0
M  V30 25 C -2.2007 1.0657 0.0 0
M  V30 26 C -2.8698 0.3225 0.0 0
M  V30 END ATOM
M  V30 BEGIN BOND
M  V30 1 2 1 2
M  V30 2 1 2 3
M  V30 3 1 2 4
M  V30 4 1 3 5
M  V30 5 2 4 6
M  V30 6 1 6 7
M  V30 7 2 7 8
M  V30 8 1 7 9
M  V30 9 1 8 10
M  V30 10 2 9 11
M  V30 11 2 10 12
M  V30 12 1 12 13
M  V30 13 1 13 14
M  V30 14 1 14 15
M  V30 15 1 15 16
M  V30 16 1 16 17
M  V30 17 1 17 18
M  V30 18 2 17 19
M  V30 19 2 18 20
M  V30 20 1 18 21
M  V30 21 1 19 22
M  V30 22 1 19 23
M  V30 23 1 20 24
M  V30 24 2 21 25
M  V30 25 2 24 26
M  V30 26 1 11 12
M  V30 27 1 20 22
M  V30 28 1 25 26
M  V30 END BOND
M  V30 END CTAB
M  END
>  <Molecule Name>
_c001

>  <status>
DISCONTINUED

>  <cas>
404950-80-7

>  <name>
PANOBINOSTAT

>  <ID>
1744

>  <Smiles>
Cc1c(CCNCc2ccc(/C=C/C(NO)=O)cc2)c(cccc2)c2[nH]1

$$$$
_c001
Actelion Java MolfileCreator 2.0

  0  0  0  0  0  0              0 V3000
M  V30 BEGIN CTAB
M  V30 COUNTS 33 37 0 0 0
M  V30 BEGIN ATOM
M  V30 1 O 0.866 -1.9999 0.0 0
M  V30 2 C 1.732 -1.4999 0.0 0
M  V30 3 N 2.598 -1.9999 0.0 0
M  V30 4 C 1.732 -0.5 0.0 0
M  V30 5 C 3.4641 -1.4999 0.0 0
M  V30 6 C 2.598 -3.0 0.0 0
M  V30 7 C 2.598 0.0 0.0 0
M  V30 8 C 0.866 0.0 0.0 0
M  V30 9 N 4.3301 -1.9999 0.0 0
M  V30 10 C 3.4641 -0.5 0.0 0
M  V30 11 C 1.789 -3.5877 0.0 0
M  V30 12 C 3.407 -3.5877 0.0 0
M  V30 13 C 2.598 1.0 0.0 0
M  V30 14 O 0.866 1.0 0.0 0
M  V30 15 C 0.0 -0.5 0.0 0
M  V30 16 C 5.1961 -1.4999 0.0 0
M  V30 17 C 4.3301 0.0 0.0 0
M  V30 18 C 2.098 -4.5388 0.0 0
M  V30 19 C 3.098 -4.5388 0.0 0
M  V30 20 N 5.1961 -0.5 0.0 0
M  V30 21 N 6.0621 -1.9999 0.0 0
M  V30 22 C 6.9282 -1.5 0.0 0
M  V30 23 N 7.7942 -2.0 0.0 0
M  V30 24 C 6.9282 -0.5 0.0 0
M  V30 25 C 8.6602 -1.5 0.0 0
M  V30 26 C 7.7942 0.0 0.0 0
M  V30 27 C 8.6602 -0.5 0.0 0
M  V30 28 N 9.5262 0.0 0.0 0
M  V30 29 C 10.3923 -0.5 0.0 0
M  V30 30 C 9.5262 0.9999 0.0 0
M  V30 31 C 11.2583 0.0 0.0 0
M  V30 32 C 10.3923 1.4999 0.0 0
M  V30 33 N 11.2583 0.9999 0.0 0
M  V30 END ATOM
M  V30 BEGIN BOND
M  V30 1 2 1 2
M  V30 2 1 2 3
M  V30 3 1 2 4
M  V30 4 1 3 5
M  V30 5 1 3 6
M  V30 6 2 4 7
M  V30 7 1 4 8
M  V30 8 2 5 9
M  V30 9 1 5 10
M  V30 10 1 6 11
M  V30 11 1 6 12
M  V30 12 1 7 13
M  V30 13 2 8 14
M  V30 14 1 8 15
M  V30 15 1 9 16
M  V30 16 2 10 17
M  V30 17 1 11 18
M  V30 18 1 12 19
M  V30 19 2 16 20
M  V30 20 1 16 21
M  V30 21 1 21 22
M  V30 22 2 22 23
M  V30 23 1 22 24
M  V30 24 1 23 25
M  V30 25 2 24 26
M  V30 26 2 25 27
M  V30 27 1 27 28
M  V30 28 1 28 29
M  V30 29 1 28 30
M  V30 30 1 29 31
M  V30 31 1 30 32
M  V30 32 1 31 33
M  V30 33 1 7 10
M  V30 34 1 17 20
M  V30 35 1 18 19
M  V30 36 1 26 27
M  V30 37 1 32 33
M  V30 END BOND
M  V30 END CTAB
M  END
>  <Molecule Name>
_c001

>  <status>
-

>  <cas>
571190-30-2

>  <name>
PALBOCICLIB

>  <ID>
1745

>  <Smiles>
CC(C1=C(C)c2cnc(Nc(cc3)ncc3N3CCNCC3)nc2N(C2CCCC2)C1=O)=O

$$$$
_c001
Actelion Java MolfileCreator 2.0

  0  0  0  0  0  0              0 V3000
M  V30 BEGIN CTAB
M  V30 COUNTS 30 33 0 0 0
M  V30 BEGIN ATOM
M  V30 1 Cl 4.3301 0.9999 0.0 0
M  V30 2 C 4.3301 0.0 0.0 0
M  V30 3 C 3.4641 -0.5 0.0 0
M  V30 4 C 5.1961 -0.5 0.0 0
M  V30 5 N 2.598 0.0 0.0 0
M  V30 6 C 3.4641 -1.5 0.0 0
M  V30 7 C 5.1961 -1.5 0.0 0
M  V30 8 C 1.732 -0.5 0.0 0
M  V30 9 C 4.3301 -2.0 0.0 0
M  V30 10 O 6.0621 -2.0 0.0 0
M  V30 11 O 1.732 -1.5 0.0 0
M  V30 12 N 0.866 0.0 0.0 0
M  V30 13 C 6.9282 -1.5 0.0 0
M  V30 14 C 0.0 -0.5 0.0 0
M  V30 15 C 7.7942 -2.0 0.0 0
M  V30 16 C 6.9282 -0.5 0.0 0
M  V30 17 C -1.0 -0.4999 0.0 0
M  V30 18 C -0.5 -1.366 0.0 0
M  V30 19 C 8.6602 -1.5 0.0 0
M  V30 20 C 7.7942 -3.0 0.0 0
M  V30 21 C 7.7942 0.0 0.0 0
M  V30 22 N 8.6602 -0.5 0.0 0
M  V30 23 C 9.5262 -2.0 0.0 0
M  V30 24 C 8.6602 -3.5 0.0 0
M  V30 25 C 9.5262 -3.0 0.0 0
M  V30 26 C 8.6602 -4.5 0.0 0
M  V30 27 O 10.3923 -3.5 0.0 0
M  V30 28 O 7.7942 -5.0 0.0 0
M  V30 29 N 9.5262 -5.0 0.0 0
M  V30 30 C 11.2583 -3.0 0.0 0
M  V30 END ATOM
M  V30 BEGIN BOND
M  V30 1 1 1 2
M  V30 2 2 2 3
M  V30 3 1 2 4
M  V30 4 1 3 5
M  V30 5 1 3 6
M  V30 6 2 4 7
M  V30 7 1 5 8
M  V30 8 2 6 9
M  V30 9 1 7 10
M  V30 10 2 8 11
M  V30 11 1 8 12
M  V30 12 1 10 13
M  V30 13 1 12 14
M  V30 14 1 13 15
M  V30 15 2 13 16
M  V30 16 1 14 17
M  V30 17 1 14 18
M  V30 18 1 15 19
M  V30 19 2 15 20
M  V30 20 1 16 21
M  V30 21 1 19 22
M  V30 22 2 19 23
M  V30 23 1 20 24
M  V30 24 1 23 25
M  V30 25 1 24 26
M  V30 26 1 25 27
M  V30 27 2 26 28
M  V30 28 1 26 29
M  V30 29 1 27 30
M  V30 30 1 7 9
M  V30 31 1 17 18
M  V30 32 2 21 22
M  V30 33 2 24 25
M  V30 END BOND
M  V30 END CTAB
M  END
>  <Molecule Name>
_c001

>  <status>
-

>  <cas>
417716-92-8

>  <name>
LENVATINIB

>  <ID>
1746

>  <Smiles>
COc(cc(c1c2)nccc1Oc(cc1)cc(Cl)c1NC(NC1CC1)=O)c2C(N)=O

$$$$
_c001
Actelion Java MolfileCreator 2.0

  0  0  0  0  0  0              0 V3000
M  V30 BEGIN CTAB
M  V30 COUNTS 20 22 0 0 0
M  V30 BEGIN ATOM
M  V30 1 O 9.7159 0.9934 0.0 0
M  V30 2 C 9.1679 -0.4028 0.0 0
M  V30 3 C 8.9659 2.2925 0.0 0
M  V30 4 C 7.7345 -0.8449 0.0 0
M  V30 5 C 10.2674 -1.4231 0.0 0
M  V30 6 C 7.4826 2.516 0.0 0
M  V30 7 C 6.4951 0.0 0.0 0
M  V30 8 C 7.4007 -2.3073 0.0 0
M  V30 9 C 9.9337 -2.8854 0.0 0
M  V30 10 C 6.383 1.4958 0.0 0
M  V30 11 C 7.1488 3.9784 0.0 0
M  V30 12 C 5.1961 -0.75 0.0 0
M  V30 13 C 8.5003 -3.3276 0.0 0
M  V30 14 C 4.9497 1.9379 0.0 0
M  V30 15 C 5.7155 4.4205 0.0 0
M  V30 16 C 3.8971 0.0 0.0 0
M  V30 17 C 4.6159 3.4003 0.0 0
M  V30 18 C 2.598 -0.75 0.0 0
M  V30 19 N 1.299 0.0 0.0 0
M  V30 20 C 0.0 -0.75 0.0 0
M  V30 END ATOM
M  V30 BEGIN BOND
M  V30 1 1 1 2
M  V30 2 1 1 3
M  V30 3 2 2 4
M  V30 4 1 2 5
M  V30 5 1 3 6
M  V30 6 1 4 7
M  V30 7 1 4 8
M  V30 8 2 5 9
M  V30 9 2 6 10
M  V30 10 1 6 11
M  V30 11 2 7 12
M  V30 12 2 8 13
M  V30 13 1 10 14
M  V30 14 2 11 15
M  V30 15 1 12 16
M  V30 16 2 14 17
M  V30 17 1 16 18
M  V30 18 1 18 19
M  V30 19 1 19 20
M  V30 20 1 7 10
M  V30 21 1 9 13
M  V30 22 1 15 17
M  V30 END BOND
M  V30 END CTAB
M  END
>  <Molecule Name>
_c001

>  <status>
-

>  <cas>
67035-76-1

>  <name>
M DOXEPIN

>  <ID>
1747

>  <Smiles>
CNCC/C=C1/c(cccc2)c2OCc2c1cccc2

$$$$
_c001
Actelion Java MolfileCreator 2.0

  0  0  0  0  0  0              0 V3000
M  V30 BEGIN CTAB
M  V30 COUNTS 20 22 0 0 0
M  V30 BEGIN ATOM
M  V30 1 O 9.7159 0.9934 0.0 0
M  V30 2 C 9.1679 -0.4028 0.0 0
M  V30 3 C 8.9659 2.2925 0.0 0
M  V30 4 C 7.7345 -0.8449 0.0 0
M  V30 5 C 10.2674 -1.4231 0.0 0
M  V30 6 C 7.4826 2.516 0.0 0
M  V30 7 C 6.4951 0.0 0.0 0
M  V30 8 C 7.4007 -2.3073 0.0 0
M  V30 9 C 9.9337 -2.8854 0.0 0
M  V30 10 C 6.383 1.4958 0.0 0
M  V30 11 C 7.1488 3.9784 0.0 0
M  V30 12 C 5.1961 -0.75 0.0 0
M  V30 13 C 8.5003 -3.3276 0.0 0
M  V30 14 C 4.9497 1.9379 0.0 0
M  V30 15 C 5.7155 4.4205 0.0 0
M  V30 16 C 5.1961 -2.25 0.0 0
M  V30 17 C 4.6159 3.4003 0.0 0
M  V30 18 C 3.8971 -2.9999 0.0 0
M  V30 19 N 3.8971 -4.5 0.0 0
M  V30 20 C 2.598 -5.25 0.0 0
M  V30 END ATOM
M  V30 BEGIN BOND
M  V30 1 1 1 2
M  V30 2 1 1 3
M  V30 3 2 2 4
M  V30 4 1 2 5
M  V30 5 1 3 6
M  V30 6 1 4 7
M  V30 7 1 4 8
M  V30 8 2 5 9
M  V30 9 2 6 10
M  V30 10 1 6 11
M  V30 11 2 7 12
M  V30 12 2 8 13
M  V30 13 1 10 14
M  V30 14 2 11 15
M  V30 15 1 12 16
M  V30 16 2 14 17
M  V30 17 1 16 18
M  V30 18 1 18 19
M  V30 19 1 19 20
M  V30 20 1 7 10
M  V30 21 1 9 13
M  V30 22 1 15 17
M  V30 END BOND
M  V30 END CTAB
M  END
>  <Molecule Name>
_c001

>  <status>
-

>  <cas>
58534-46-6

>  <name>
M DOXEPIN

>  <ID>
1748

>  <Smiles>
CNCC/C=C1\c(cccc2)c2OCc2c1cccc2

$$$$
_c001
Actelion Java MolfileCreator 2.0

  0  0  0  0  0  0              0 V3000
M  V30 BEGIN CTAB
M  V30 COUNTS 21 23 0 0 0
M  V30 BEGIN ATOM
M  V30 1 O 9.7159 0.9934 0.0 0
M  V30 2 C 9.1679 -0.4028 0.0 0
M  V30 3 C 8.9659 2.2925 0.0 0
M  V30 4 C 7.7345 -0.8449 0.0 0
M  V30 5 C 10.2674 -1.4231 0.0 0
M  V30 6 C 7.4826 2.516 0.0 0
M  V30 7 C 6.4951 0.0 0.0 0
M  V30 8 C 7.4007 -2.3073 0.0 0
M  V30 9 C 9.9337 -2.8854 0.0 0
M  V30 10 C 6.383 1.4958 0.0 0
M  V30 11 C 7.1488 3.9784 0.0 0
M  V30 12 C 5.1961 -0.75 0.0 0
M  V30 13 C 8.5003 -3.3276 0.0 0
M  V30 14 C 4.9497 1.9379 0.0 0
M  V30 15 C 5.7155 4.4205 0.0 0
M  V30 16 C 3.8971 0.0 0.0 0
M  V30 17 C 4.6159 3.4003 0.0 0
M  V30 18 C 2.598 -0.75 0.0 0
M  V30 19 N 1.299 0.0 0.0 0
M  V30 20 C 1.299 1.5 0.0 0
M  V30 21 C 0.0 -0.75 0.0 0
M  V30 END ATOM
M  V30 BEGIN BOND
M  V30 1 1 1 2
M  V30 2 1 1 3
M  V30 3 2 2 4
M  V30 4 1 2 5
M  V30 5 1 3 6
M  V30 6 1 4 7
M  V30 7 1 4 8
M  V30 8 2 5 9
M  V30 9 2 6 10
M  V30 10 1 6 11
M  V30 11 2 7 12
M  V30 12 2 8 13
M  V30 13 1 10 14
M  V30 14 2 11 15
M  V30 15 1 12 16
M  V30 16 2 14 17
M  V30 17 1 16 18
M  V30 18 1 18 19
M  V30 19 1 19 20
M  V30 20 1 19 21
M  V30 21 1 7 10
M  V30 22 1 9 13
M  V30 23 1 15 17
M  V30 END BOND
M  V30 END CTAB
M  END
>  <Molecule Name>
_c001

>  <status>
-

>  <cas>
1668-19-5

>  <name>
DOXEPIN

>  <ID>
1749

>  <Smiles>
CN(C)CC/C=C1/c(cccc2)c2OCc2c1cccc2

$$$$
_c001
Actelion Java MolfileCreator 2.0

  0  0  0  0  0  0              0 V3000
M  V30 BEGIN CTAB
M  V30 COUNTS 29 30 0 0 0
M  V30 BEGIN ATOM
M  V30 1 P 5.1961 -2.25 0.0 0 CFG=2
M  V30 2 O 4.4461 -3.549 0.0 0
M  V30 3 O 5.1961 -0.75 0.0 0
M  V30 4 O 6.4952 -3.0 0.0 0
M  V30 5 O 3.6961 -2.2499 0.0 0 CHG=-1
M  V30 6 P 3.8971 0.0 0.0 0 CFG=1
M  V30 7 P 7.7942 -2.25 0.0 0
M  V30 8 O 4.6471 1.299 0.0 0
M  V30 9 O 2.598 -0.75 0.0 0
M  V30 10 O 3.1471 1.299 0.0 0 CHG=-1
M  V30 11 O 8.5442 -3.549 0.0 0
M  V30 12 O 9.0932 -1.5 0.0 0 CHG=-1
M  V30 13 O 7.0442 -0.9509 0.0 0 CHG=-1
M  V30 14 C 1.299 0.0 0.0 0
M  V30 15 C 0.0 -0.75 0.0 0 CFG=2
M  V30 16 O -1.3703 -0.1398 0.0 0
M  V30 17 C -0.1567 -2.2417 0.0 0 CFG=2
M  V30 18 C -2.374 -1.2546 0.0 0 CFG=1
M  V30 19 O 0.9579 -3.2454 0.0 0
M  V30 20 C -1.624 -2.5536 0.0 0 CFG=2
M  V30 21 N -3.8658 -1.0978 0.0 0
M  V30 22 O -2.2341 -3.9239 0.0 0
M  V30 23 C -4.4759 0.2724 0.0 0
M  V30 24 C -4.7474 -2.3113 0.0 0
M  V30 25 O -3.5942 1.486 0.0 0
M  V30 26 N -5.9677 0.4292 0.0 0
M  V30 27 C -6.2392 -2.1545 0.0 0
M  V30 28 C -6.8493 -0.7842 0.0 0
M  V30 29 N -8.3411 -0.6274 0.0 0
M  V30 END ATOM
M  V30 BEGIN BOND
M  V30 1 2 1 2
M  V30 2 1 1 3
M  V30 3 1 1 4
M  V30 4 1 1 5 CFG=1
M  V30 5 1 6 3
M  V30 6 1 4 7
M  V30 7 2 6 8
M  V30 8 1 6 9
M  V30 9 1 6 10 CFG=1
M  V30 10 2 7 11
M  V30 11 1 7 12
M  V30 12 1 7 13
M  V30 13 1 9 14
M  V30 14 1 15 14 CFG=1
M  V30 15 1 15 16
M  V30 16 1 17 15
M  V30 17 1 18 16
M  V30 18 1 17 19 CFG=3
M  V30 19 1 20 17
M  V30 20 1 18 21 CFG=1
M  V30 21 1 20 22 CFG=1
M  V30 22 1 21 23
M  V30 23 1 21 24
M  V30 24 2 23 25
M  V30 25 1 23 26
M  V30 26 2 24 27
M  V30 27 2 26 28
M  V30 28 1 28 29
M  V30 29 1 18 20
M  V30 30 1 27 28
M  V30 END BOND
M  V30 BEGIN COLLECTION
M  V30 MDLV30/STERAC1 ATOMS=(6 1 6 15 17 18 20)
M  V30 END COLLECTION
M  V30 END CTAB
M  END
>  <Molecule Name>
_c001

>  <status>
-

>  <cas>
13191-15-6

>  <name>
M CYTARABINE

>  <ID>
1750

>  <Smiles>
NC(C=CN1[C@H]([C@@H]2O)O[C@@H](CO[P@@]([O-])(O[P@]([O-])(OP([O-])([O-])=O)=O)=O)[C@@H]2O)=NC1=O

$$$$
_c001
Actelion Java MolfileCreator 2.0

  0  0  0  0  0  0              0 V3000
M  V30 BEGIN CTAB
M  V30 COUNTS 20 22 0 0 0
M  V30 BEGIN ATOM
M  V30 1 Cl 0.866 0.0 0.0 0
M  V30 2 C 0.0 -0.5 0.0 0
M  V30 3 C -0.866 0.0 0.0 0
M  V30 4 C 0.0 -1.4999 0.0 0
M  V30 5 C -1.732 -0.4999 0.0 0
M  V30 6 C -0.866 -1.9999 0.0 0
M  V30 7 C -2.5138 0.1234 0.0 0
M  V30 8 C -1.732 -1.4999 0.0 0
M  V30 9 N -3.4888 -0.099 0.0 0
M  V30 10 C -2.2913 1.0984 0.0 0
M  V30 11 N -2.5138 -2.1234 0.0 0
M  V30 12 C -3.9226 -0.9999 0.0 0
M  V30 13 C -3.0244 1.7785 0.0 0
M  V30 14 C -1.3357 1.3931 0.0 0
M  V30 15 C -3.4888 -1.9009 0.0 0
M  V30 16 F -3.9799 1.4838 0.0 0
M  V30 17 C -2.8018 2.7535 0.0 0
M  V30 18 C -1.1132 2.3681 0.0 0
M  V30 19 O -4.1123 -2.6828 0.0 0
M  V30 20 C -1.8463 3.0482 0.0 0
M  V30 END ATOM
M  V30 BEGIN BOND
M  V30 1 1 1 2
M  V30 2 2 2 3
M  V30 3 1 2 4
M  V30 4 1 3 5
M  V30 5 2 4 6
M  V30 6 1 5 7
M  V30 7 2 5 8
M  V30 8 2 7 9
M  V30 9 1 7 10
M  V30 10 1 8 11
M  V30 11 1 9 12
M  V30 12 2 10 13
M  V30 13 1 10 14
M  V30 14 1 11 15
M  V30 15 1 13 16
M  V30 16 1 13 17
M  V30 17 2 14 18
M  V30 18 2 15 19
M  V30 19 2 17 20
M  V30 20 1 6 8
M  V30 21 1 12 15
M  V30 22 1 18 20
M  V30 END BOND
M  V30 END CTAB
M  END
>  <Molecule Name>
_c001

>  <status>
-

>  <cas>
2886-65-9

>  <name>
M FLURAZEPAM

>  <ID>
1751

>  <Smiles>
O=C1Nc(ccc(Cl)c2)c2C(c(cccc2)c2F)=NC1

$$$$
_c001
Actelion Java MolfileCreator 2.0

  0  0  0  0  0  0              0 V3000
M  V30 BEGIN CTAB
M  V30 COUNTS 19 22 0 0 0
M  V30 BEGIN ATOM
M  V30 1 O 2.598 -0.75 0.0 0
M  V30 2 C 1.299 0.0 0.0 0
M  V30 3 N 1.299 1.5 0.0 0
M  V30 4 N 0.0 -0.75 0.0 0
M  V30 5 C -0.0524 2.1508 0.0 0
M  V30 6 C 2.6504 2.1508 0.0 0
M  V30 7 C -0.3861 3.6132 0.0 0
M  V30 8 C -1.1519 1.1305 0.0 0
M  V30 9 C 2.9842 3.6132 0.0 0
M  V30 10 C 3.75 1.1305 0.0 0
M  V30 11 C -1.8195 4.0553 0.0 0
M  V30 12 C 0.549 4.7859 0.0 0 CFG=2
M  V30 13 C -2.5853 1.5726 0.0 0
M  V30 14 C 4.4176 4.0553 0.0 0
M  V30 15 C 2.049 4.7859 0.0 0 CFG=1
M  V30 16 C 5.1834 1.5726 0.0 0
M  V30 17 C -2.9191 3.035 0.0 0
M  V30 18 O 1.299 6.085 0.0 0
M  V30 19 C 5.5172 3.035 0.0 0
M  V30 END ATOM
M  V30 BEGIN BOND
M  V30 1 2 1 2
M  V30 2 1 2 3
M  V30 3 1 2 4
M  V30 4 1 3 5
M  V30 5 1 3 6
M  V30 6 2 5 7
M  V30 7 1 5 8
M  V30 8 2 6 9
M  V30 9 1 6 10
M  V30 10 1 7 11
M  V30 11 1 12 7
M  V30 12 2 8 13
M  V30 13 1 9 14
M  V30 14 1 15 9
M  V30 15 2 10 16
M  V30 16 2 11 17
M  V30 17 1 12 18 CFG=1
M  V30 18 2 14 19
M  V30 19 1 12 15
M  V30 20 1 13 17
M  V30 21 1 15 18 CFG=1
M  V30 22 1 16 19
M  V30 END BOND
M  V30 BEGIN COLLECTION
M  V30 MDLV30/STEABS ATOMS=(2 12 15)
M  V30 END COLLECTION
M  V30 END CTAB
M  END
>  <Molecule Name>
_c001

>  <status>
-

>  <cas>
36507-30-9

>  <name>
M CARBAMAZEPINE

>  <ID>
1752

>  <Smiles>
NC(N(c1c([C@@H]2O[C@H]22)cccc1)c1c2cccc1)=O

$$$$
_c001
Actelion Java MolfileCreator 2.0

  0  0  0  0  0  0              0 V3000
M  V30 BEGIN CTAB
M  V30 COUNTS 29 31 0 0 0
M  V30 BEGIN ATOM
M  V30 1 Cl 14.2894 -2.9999 0.0 0
M  V30 2 C 12.9903 -2.25 0.0 0
M  V30 3 C 12.9903 -0.75 0.0 0
M  V30 4 C 11.6913 -3.0 0.0 0
M  V30 5 C 11.6913 0.0 0.0 0
M  V30 6 C 14.2894 0.0 0.0 0
M  V30 7 C 10.3923 -2.25 0.0 0
M  V30 8 C 11.6913 -4.5 0.0 0
M  V30 9 C 11.6913 1.4999 0.0 0
M  V30 10 C 14.2894 1.5 0.0 0
M  V30 11 C 10.3923 -0.75 0.0 0
M  V30 12 C 9.0932 -3.0 0.0 0
M  V30 13 C 10.3923 -5.2499 0.0 0
M  V30 14 C 12.9903 -5.25 0.0 0
M  V30 15 C 12.9903 2.2499 0.0 0
M  V30 16 C 9.0932 0.0 0.0 0
M  V30 17 C 7.7942 -2.25 0.0 0
M  V30 18 C 10.3923 -6.75 0.0 0
M  V30 19 C 12.9903 -6.75 0.0 0
M  V30 20 C 7.7942 -0.75 0.0 0
M  V30 21 C 11.6913 -7.5 0.0 0
M  V30 22 O 6.4951 0.0 0.0 0
M  V30 23 C 5.1961 -0.75 0.0 0
M  V30 24 C 3.8971 0.0 0.0 0
M  V30 25 N 2.598 -0.75 0.0 0
M  V30 26 C 2.598 -2.25 0.0 0
M  V30 27 C 1.299 0.0 0.0 0
M  V30 28 C 3.8971 -3.0 0.0 0
M  V30 29 C 0.0 -0.75 0.0 0
M  V30 END ATOM
M  V30 BEGIN BOND
M  V30 1 1 1 2
M  V30 2 1 2 3
M  V30 3 2 2 4
M  V30 4 2 3 5
M  V30 5 1 3 6
M  V30 6 1 4 7
M  V30 7 1 4 8
M  V30 8 1 5 9
M  V30 9 2 6 10
M  V30 10 2 7 11
M  V30 11 1 7 12
M  V30 12 2 8 13
M  V30 13 1 8 14
M  V30 14 2 9 15
M  V30 15 1 11 16
M  V30 16 2 12 17
M  V30 17 1 13 18
M  V30 18 2 14 19
M  V30 19 2 16 20
M  V30 20 2 18 21
M  V30 21 1 20 22
M  V30 22 1 22 23
M  V30 23 1 23 24
M  V30 24 1 24 25
M  V30 25 1 25 26
M  V30 26 1 25 27
M  V30 27 1 26 28
M  V30 28 1 27 29
M  V30 29 1 10 15
M  V30 30 1 17 20
M  V30 31 1 19 21
M  V30 END BOND
M  V30 END CTAB
M  END
>  <Molecule Name>
_c001

>  <status>
-

>  <cas>
911-45-5

>  <name>
CLOMIPHENE

>  <ID>
1753

>  <Smiles>
CCN(CC)CCOc(cc1)ccc1/C(/c1ccccc1)=C(\c1ccccc1)/Cl

$$$$
_c001
Actelion Java MolfileCreator 2.0

  0  0  0  0  0  0              0 V3000
M  V30 BEGIN CTAB
M  V30 COUNTS 14 14 0 0 0
M  V30 BEGIN ATOM
M  V30 1 Cl 9.0932 -3.0 0.0 0
M  V30 2 C 7.7942 -2.25 0.0 0
M  V30 3 C 7.7942 -0.75 0.0 0
M  V30 4 C 6.4952 -3.0 0.0 0
M  V30 5 C 6.4952 0.0 0.0 0
M  V30 6 C 5.1961 -2.25 0.0 0
M  V30 7 C 5.1961 -0.75 0.0 0
M  V30 8 O 3.8971 0.0 0.0 0
M  V30 9 C 2.598 -0.75 0.0 0
M  V30 10 C 1.299 0.0 0.0 0
M  V30 11 C 1.848 -2.049 0.0 0
M  V30 12 C 3.348 -2.049 0.0 0
M  V30 13 O 1.299 1.5 0.0 0
M  V30 14 O 0.0 -0.75 0.0 0 CHG=-1
M  V30 END ATOM
M  V30 BEGIN BOND
M  V30 1 1 1 2
M  V30 2 2 2 3
M  V30 3 1 2 4
M  V30 4 1 3 5
M  V30 5 2 4 6
M  V30 6 2 5 7
M  V30 7 1 7 8
M  V30 8 1 8 9
M  V30 9 1 9 10
M  V30 10 1 9 11
M  V30 11 1 9 12
M  V30 12 2 10 13
M  V30 13 1 10 14
M  V30 14 1 6 7
M  V30 END BOND
M  V30 END CTAB
M  END
>  <Molecule Name>
_c001

>  <status>
-

>  <cas>
882-09-7

>  <name>
M CLOFIBRATE

>  <ID>
1754

>  <Smiles>
CC(C)(C([O-])=O)Oc(cc1)ccc1Cl

$$$$
_c001
Actelion Java MolfileCreator 2.0

  0  0  0  0  0  0              0 V3000
M  V30 BEGIN CTAB
M  V30 COUNTS 11 12 0 0 0
M  V30 BEGIN ATOM
M  V30 1 O 0.866 0.0 0.0 0
M  V30 2 C 0.0 -0.5 0.0 0
M  V30 3 N -0.866 0.0 0.0 0
M  V30 4 N 0.0 -1.4999 0.0 0
M  V30 5 C -1.732 -0.4999 0.0 0
M  V30 6 C -0.866 -1.9999 0.0 0
M  V30 7 O -2.598 0.0 0.0 0
M  V30 8 C -1.732 -1.4999 0.0 0
M  V30 9 N -1.0739 -2.9781 0.0 0
M  V30 10 C -2.4751 -2.1691 0.0 0
M  V30 11 N -2.0684 -3.0826 0.0 0
M  V30 END ATOM
M  V30 BEGIN BOND
M  V30 1 2 1 2
M  V30 2 1 2 3
M  V30 3 1 2 4
M  V30 4 1 3 5
M  V30 5 1 4 6
M  V30 6 2 5 7
M  V30 7 1 5 8
M  V30 8 1 6 9
M  V30 9 1 8 10
M  V30 10 1 9 11
M  V30 11 2 6 8
M  V30 12 2 10 11
M  V30 END BOND
M  V30 END CTAB
M  END
>  <Molecule Name>
_c001

>  <status>
-

>  <cas>
2465-59-0

>  <name>
M ALLOPURINOL

>  <ID>
1755

>  <Smiles>
O=C(c(cn[nH]1)c1N1)NC1=O

$$$$
_c001
Actelion Java MolfileCreator 2.0

  0  0  0  0  0  0              0 V3000
M  V30 BEGIN CTAB
M  V30 COUNTS 18 19 0 0 0
M  V30 BEGIN ATOM
M  V30 1 O 2.598 1.0 0.0 0
M  V30 2 C 2.598 0.0 0.0 0
M  V30 3 C 1.732 -0.5 0.0 0
M  V30 4 C 3.4641 -0.4999 0.0 0
M  V30 5 C 0.866 0.0 0.0 0
M  V30 6 C 1.732 -1.5 0.0 0
M  V30 7 C 3.4641 -1.4999 0.0 0
M  V30 8 C 4.3301 0.0 0.0 0
M  V30 9 O 0.866 1.0 0.0 0
M  V30 10 O 0.0 -0.5 0.0 0 CHG=-1
M  V30 11 N 2.598 -1.9999 0.0 0
M  V30 12 N 4.3301 -1.9999 0.0 0
M  V30 13 C 5.1961 -0.4999 0.0 0
M  V30 14 C 2.598 -2.9999 0.0 0
M  V30 15 C 5.1961 -1.4999 0.0 0
M  V30 16 C 3.4641 -3.4999 0.0 0
M  V30 17 C 6.0621 -1.9999 0.0 0
M  V30 18 O 6.9282 -1.4999 0.0 0
M  V30 END ATOM
M  V30 BEGIN BOND
M  V30 1 2 1 2
M  V30 2 1 2 3
M  V30 3 1 2 4
M  V30 4 1 3 5
M  V30 5 2 3 6
M  V30 6 2 4 7
M  V30 7 1 4 8
M  V30 8 2 5 9
M  V30 9 1 5 10
M  V30 10 1 6 11
M  V30 11 1 7 12
M  V30 12 2 8 13
M  V30 13 1 11 14
M  V30 14 2 12 15
M  V30 15 1 14 16
M  V30 16 1 15 17
M  V30 17 1 17 18
M  V30 18 1 7 11
M  V30 19 1 13 15
M  V30 END BOND
M  V30 END CTAB
M  END
>  <Molecule Name>
_c001

>  <status>
-

>  <cas>
3759-18-0

>  <name>
M NALIDIXIC ACID

>  <ID>
1756

>  <Smiles>
CCN(C=C1C([O-])=O)c(nc(CO)cc2)c2C1=O

$$$$
_c001
Actelion Java MolfileCreator 2.0

  0  0  0  0  0  0              0 V3000
M  V30 BEGIN CTAB
M  V30 COUNTS 22 23 0 0 0
M  V30 BEGIN ATOM
M  V30 1 S 5.1961 -0.75 0.0 0
M  V30 2 O 4.4461 -2.049 0.0 0
M  V30 3 O 5.9461 -2.049 0.0 0
M  V30 4 N 3.8971 0.0 0.0 0
M  V30 5 C 6.4952 0.0 0.0 0
M  V30 6 C 2.598 -0.75 0.0 0
M  V30 7 C 7.7942 -0.75 0.0 0
M  V30 8 C 6.4952 1.5 0.0 0
M  V30 9 O 2.598 -2.25 0.0 0
M  V30 10 N 1.299 0.0 0.0 0
M  V30 11 C 9.0932 0.0 0.0 0
M  V30 12 C 7.7942 2.25 0.0 0
M  V30 13 C 0.0 -0.75 0.0 0
M  V30 14 C 9.0932 1.5 0.0 0
M  V30 15 C -1.299 0.0 0.0 0
M  V30 16 C 0.0 -2.25 0.0 0
M  V30 17 C 10.3923 2.25 0.0 0 CFG=1
M  V30 18 C -2.598 -0.75 0.0 0
M  V30 19 C -1.299 -3.0 0.0 0
M  V30 20 O 11.6913 1.5 0.0 0
M  V30 21 C 10.3923 3.75 0.0 0
M  V30 22 C -2.598 -2.25 0.0 0
M  V30 END ATOM
M  V30 BEGIN BOND
M  V30 1 2 1 2
M  V30 2 2 1 3
M  V30 3 1 1 4
M  V30 4 1 1 5
M  V30 5 1 4 6
M  V30 6 2 5 7
M  V30 7 1 5 8
M  V30 8 2 6 9
M  V30 9 1 6 10
M  V30 10 1 7 11
M  V30 11 2 8 12
M  V30 12 1 10 13
M  V30 13 2 11 14
M  V30 14 1 13 15
M  V30 15 1 13 16
M  V30 16 1 17 14
M  V30 17 1 15 18
M  V30 18 1 16 19
M  V30 19 1 17 20 CFG=3
M  V30 20 1 17 21
M  V30 21 1 18 22
M  V30 22 1 12 14
M  V30 23 1 19 22
M  V30 END BOND
M  V30 BEGIN COLLECTION
M  V30 MDLV30/STERAC1 ATOMS=(1 17)
M  V30 END COLLECTION
M  V30 END CTAB
M  END
>  <Molecule Name>
_c001

>  <status>
-

>  <cas>
968-80-9

>  <name>
M ACETOHEXAMIDE

>  <ID>
1757

>  <Smiles>
CC(c(cc1)ccc1S(NC(NC1CCCCC1)=O)(=O)=O)O

$$$$
_c001
Actelion Java MolfileCreator 2.0

  0  0  0  0  0  0              0 V3000
M  V30 BEGIN CTAB
M  V30 COUNTS 22 23 0 0 0
M  V30 BEGIN ATOM
M  V30 1 S 5.1961 -0.75 0.0 0
M  V30 2 O 4.4461 -2.049 0.0 0
M  V30 3 O 5.9461 -2.049 0.0 0
M  V30 4 N 3.8971 0.0 0.0 0
M  V30 5 C 6.4952 0.0 0.0 0
M  V30 6 C 2.598 -0.75 0.0 0
M  V30 7 C 7.7942 -0.75 0.0 0
M  V30 8 C 6.4952 1.5 0.0 0
M  V30 9 O 2.598 -2.25 0.0 0
M  V30 10 N 1.299 0.0 0.0 0
M  V30 11 C 9.0932 0.0 0.0 0
M  V30 12 C 7.7942 2.25 0.0 0
M  V30 13 C 0.0 -0.75 0.0 0
M  V30 14 C 9.0932 1.5 0.0 0
M  V30 15 C -1.299 0.0 0.0 0
M  V30 16 C 0.0 -2.25 0.0 0
M  V30 17 C 10.3923 2.25 0.0 0 CFG=1
M  V30 18 C -2.598 -0.75 0.0 0
M  V30 19 C -1.299 -3.0 0.0 0
M  V30 20 O 11.6913 1.5 0.0 0
M  V30 21 C 10.3923 3.75 0.0 0
M  V30 22 C -2.598 -2.25 0.0 0
M  V30 END ATOM
M  V30 BEGIN BOND
M  V30 1 2 1 2
M  V30 2 2 1 3
M  V30 3 1 1 4
M  V30 4 1 1 5
M  V30 5 1 4 6
M  V30 6 2 5 7
M  V30 7 1 5 8
M  V30 8 2 6 9
M  V30 9 1 6 10
M  V30 10 1 7 11
M  V30 11 2 8 12
M  V30 12 1 10 13
M  V30 13 2 11 14
M  V30 14 1 13 15
M  V30 15 1 13 16
M  V30 16 1 17 14
M  V30 17 1 15 18
M  V30 18 1 16 19
M  V30 19 1 17 20 CFG=3
M  V30 20 1 17 21
M  V30 21 1 18 22
M  V30 22 1 12 14
M  V30 23 1 19 22
M  V30 END BOND
M  V30 BEGIN COLLECTION
M  V30 MDLV30/STERAC1 ATOMS=(1 17)
M  V30 END COLLECTION
M  V30 END CTAB
M  END
>  <Molecule Name>
_c001

>  <status>
-

>  <cas>
220948-25-4

>  <name>
M ACETOHEXAMIDE

>  <ID>
1758

>  <Smiles>
CC(c(cc1)ccc1S(NC(NC1CCCCC1)=O)(=O)=O)O

$$$$
_c001
Actelion Java MolfileCreator 2.0

  0  0  0  0  0  0              0 V3000
M  V30 BEGIN CTAB
M  V30 COUNTS 24 26 0 0 0
M  V30 BEGIN ATOM
M  V30 1 S 6.1882 4.7196 0.0 0
M  V30 2 C 6.0837 3.7251 0.0 0
M  V30 3 N 6.8927 3.1373 0.0 0
M  V30 4 C 5.1701 3.3184 0.0 0
M  V30 5 C 6.7881 2.1428 0.0 0
M  V30 6 N 4.2566 3.7251 0.0 0
M  V30 7 C 5.0656 2.3238 0.0 0
M  V30 8 N 5.8746 1.7361 0.0 0
M  V30 9 N 7.5972 1.555 0.0 0
M  V30 10 C 3.5874 2.982 0.0 0
M  V30 11 N 4.0874 2.1159 0.0 0
M  V30 12 C 3.6807 1.2024 0.0 0 CFG=1
M  V30 13 O 2.7026 0.9945 0.0 0
M  V30 14 C 4.1807 0.3364 0.0 0 CFG=1
M  V30 15 C 2.598 0.0 0.0 0 CFG=2
M  V30 16 O 5.1752 0.2318 0.0 0
M  V30 17 C 3.5116 -0.4067 0.0 0 CFG=2
M  V30 18 C 1.732 -0.5 0.0 0
M  V30 19 O 3.7195 -1.3848 0.0 0
M  V30 20 O 0.866 0.0 0.0 0
M  V30 21 P 0.0 -0.5 0.0 0
M  V30 22 O -0.4999 0.366 0.0 0
M  V30 23 O -0.866 -0.9999 0.0 0 CHG=-1
M  V30 24 O 0.4999 -1.366 0.0 0 CHG=-1
M  V30 END ATOM
M  V30 BEGIN BOND
M  V30 1 2 1 2
M  V30 2 1 2 3
M  V30 3 1 2 4
M  V30 4 2 3 5
M  V30 5 1 4 6
M  V30 6 2 4 7
M  V30 7 1 5 8
M  V30 8 1 5 9
M  V30 9 2 6 10
M  V30 10 1 7 11
M  V30 11 1 12 11 CFG=3
M  V30 12 1 12 13
M  V30 13 1 14 12
M  V30 14 1 15 13
M  V30 15 1 14 16 CFG=1
M  V30 16 1 17 14
M  V30 17 1 15 18 CFG=3
M  V30 18 1 17 19 CFG=1
M  V30 19 1 18 20
M  V30 20 1 20 21
M  V30 21 2 21 22
M  V30 22 1 21 23
M  V30 23 1 21 24
M  V30 24 1 7 8
M  V30 25 1 10 11
M  V30 26 1 15 17
M  V30 END BOND
M  V30 BEGIN COLLECTION
M  V30 MDLV30/STERAC1 ATOMS=(4 12 14 15 17)
M  V30 END COLLECTION
M  V30 END CTAB
M  END
>  <Molecule Name>
_c001

>  <status>
-

>  <cas>
15867-02-4

>  <name>
M THIOGUANINE

>  <ID>
1759

>  <Smiles>
NC(Nc1c2ncn1[C@H]([C@H]1O)O[C@@H](COP([O-])([O-])=O)[C@@H]1O)=NC2=S

$$$$
_c001
Actelion Java MolfileCreator 2.0

  0  0  0  0  0  0              0 V3000
M  V30 BEGIN CTAB
M  V30 COUNTS 16 16 0 0 0
M  V30 BEGIN ATOM
M  V30 1 S 0.0 3.7778 0.0 0
M  V30 2 C 1.3087 3.0223 0.0 0
M  V30 3 N 1.3087 1.5111 0.0 0
M  V30 4 N 2.6174 3.7778 0.0 0
M  V30 5 C 2.6174 0.7555 0.0 0
M  V30 6 C 3.9261 3.0223 0.0 0
M  V30 7 O 2.4838 -0.622 0.0 0
M  V30 8 C 3.9261 1.5111 0.0 0
M  V30 9 O 5.2348 3.7778 0.0 0
M  V30 10 C 3.9261 0.0 0.0 0 CFG=2
M  V30 11 C 5.2348 0.7555 0.0 0
M  V30 12 C 5.2348 -0.7555 0.0 0
M  V30 13 C 2.8845 -1.0227 0.0 0
M  V30 14 C 6.5435 1.5111 0.0 0
M  V30 15 C 6.5435 0.0 0.0 0
M  V30 16 C 7.8522 -0.7555 0.0 0
M  V30 END ATOM
M  V30 BEGIN BOND
M  V30 1 2 1 2
M  V30 2 1 2 3
M  V30 3 1 2 4
M  V30 4 1 3 5
M  V30 5 1 4 6
M  V30 6 2 5 7
M  V30 7 1 5 8
M  V30 8 2 6 9
M  V30 9 1 10 8
M  V30 10 1 8 11
M  V30 11 1 10 12
M  V30 12 1 10 13 CFG=3
M  V30 13 1 11 14
M  V30 14 1 12 15
M  V30 15 1 15 16
M  V30 16 1 6 8
M  V30 END BOND
M  V30 BEGIN COLLECTION
M  V30 MDLV30/STERAC1 ATOMS=(1 10)
M  V30 END COLLECTION
M  V30 END CTAB
M  END
>  <Molecule Name>
_c001

>  <status>
DISCONTINUED

>  <cas>
76-75-5

>  <name>
THIOPENTAL

>  <ID>
1760

>  <Smiles>
CCCC(C)C(CC)(C(NC(N1)=S)=O)C1=O

$$$$
_c001
Actelion Java MolfileCreator 2.0

  0  0  0  0  0  0              0 V3000
M  V30 BEGIN CTAB
M  V30 COUNTS 7 6 0 0 0
M  V30 BEGIN ATOM
M  V30 1 Br 1.732 -0.5 0.0 0
M  V30 2 C 0.866 0.0 0.0 0 CFG=2
M  V30 3 Cl 0.866 1.0 0.0 0
M  V30 4 C 0.0 -0.5 0.0 0
M  V30 5 F 0.4999 -1.366 0.0 0
M  V30 6 F -0.866 -0.9999 0.0 0
M  V30 7 F -0.4999 0.366 0.0 0
M  V30 END ATOM
M  V30 BEGIN BOND
M  V30 1 1 2 1 CFG=1
M  V30 2 1 2 3
M  V30 3 1 2 4
M  V30 4 1 4 5
M  V30 5 1 4 6
M  V30 6 1 4 7
M  V30 END BOND
M  V30 BEGIN COLLECTION
M  V30 MDLV30/STERAC1 ATOMS=(1 2)
M  V30 END COLLECTION
M  V30 END CTAB
M  END
>  <Molecule Name>
_c001

>  <status>
DISCONTINUED

>  <cas>
151-67-7

>  <name>
HALOTHANE

>  <ID>
1761

>  <Smiles>
FC(C(Cl)Br)(F)F

$$$$
_c001
Actelion Java MolfileCreator 2.0

  0  0  0  0  0  0              0 V3000
M  V30 BEGIN CTAB
M  V30 COUNTS 14 15 0 0 0
M  V30 BEGIN ATOM
M  V30 1 O 0.866 0.0 0.0 0
M  V30 2 C 0.0 -0.5 0.0 0
M  V30 3 N -0.9135 -0.0932 0.0 0
M  V30 4 C -0.1045 -1.4945 0.0 0 CFG=1
M  V30 5 C -1.5826 -0.8364 0.0 0
M  V30 6 C 0.6386 -2.1636 0.0 0
M  V30 7 C -1.0826 -1.7024 0.0 0
M  V30 8 C -0.3633 -2.4604 0.0 0
M  V30 9 O -2.5771 -0.7318 0.0 0
M  V30 10 C 0.4307 -3.1418 0.0 0
M  V30 11 C 1.5896 -1.8546 0.0 0
M  V30 12 C 1.1738 -3.8109 0.0 0
M  V30 13 C 2.3328 -2.5237 0.0 0
M  V30 14 C 2.1249 -3.5019 0.0 0
M  V30 END ATOM
M  V30 BEGIN BOND
M  V30 1 2 1 2
M  V30 2 1 2 3
M  V30 3 1 4 2
M  V30 4 1 3 5
M  V30 5 1 4 6
M  V30 6 1 4 7
M  V30 7 1 4 8 CFG=3
M  V30 8 2 5 9
M  V30 9 2 6 10
M  V30 10 1 6 11
M  V30 11 1 10 12
M  V30 12 2 11 13
M  V30 13 2 12 14
M  V30 14 1 5 7
M  V30 15 1 13 14
M  V30 END BOND
M  V30 BEGIN COLLECTION
M  V30 MDLV30/STERAC1 ATOMS=(1 4)
M  V30 END COLLECTION
M  V30 END CTAB
M  END
>  <Molecule Name>
_c001

>  <status>
-

>  <cas>
39122-10-6

>  <name>
M METHSUXIMIDE

>  <ID>
1762

>  <Smiles>
CC(CC(N1)=O)(C1=O)c1ccccc1

$$$$
_c001
Actelion Java MolfileCreator 2.0

  0  0  0  0  0  0              0 V3000
M  V30 BEGIN CTAB
M  V30 COUNTS 14 15 0 0 0
M  V30 BEGIN ATOM
M  V30 1 O 0.866 0.0 0.0 0
M  V30 2 C 0.0 -0.5 0.0 0
M  V30 3 N -0.9135 -0.0932 0.0 0
M  V30 4 C -0.1045 -1.4945 0.0 0 CFG=1
M  V30 5 C -1.5826 -0.8364 0.0 0
M  V30 6 C 0.6386 -2.1636 0.0 0
M  V30 7 C -1.0826 -1.7024 0.0 0
M  V30 8 C -0.3633 -2.4604 0.0 0
M  V30 9 O -2.5771 -0.7318 0.0 0
M  V30 10 C 0.4307 -3.1418 0.0 0
M  V30 11 C 1.5896 -1.8546 0.0 0
M  V30 12 C 1.1738 -3.8109 0.0 0
M  V30 13 C 2.3328 -2.5237 0.0 0
M  V30 14 C 2.1249 -3.5019 0.0 0
M  V30 END ATOM
M  V30 BEGIN BOND
M  V30 1 2 1 2
M  V30 2 1 2 3
M  V30 3 1 4 2
M  V30 4 1 3 5
M  V30 5 1 4 6
M  V30 6 1 4 7
M  V30 7 1 4 8 CFG=3
M  V30 8 2 5 9
M  V30 9 2 6 10
M  V30 10 1 6 11
M  V30 11 1 10 12
M  V30 12 2 11 13
M  V30 13 2 12 14
M  V30 14 1 5 7
M  V30 15 1 13 14
M  V30 END BOND
M  V30 BEGIN COLLECTION
M  V30 MDLV30/STERAC1 ATOMS=(1 4)
M  V30 END COLLECTION
M  V30 END CTAB
M  END
>  <Molecule Name>
_c001

>  <status>
-

>  <cas>
39122-11-7

>  <name>
M METHSUXIMIDE

>  <ID>
1763

>  <Smiles>
CC(CC(N1)=O)(C1=O)c1ccccc1

$$$$
_c001
Actelion Java MolfileCreator 2.0

  0  0  0  0  0  0              0 V3000
M  V30 BEGIN CTAB
M  V30 COUNTS 13 14 0 0 0
M  V30 BEGIN ATOM
M  V30 1 O 1.299 1.5 0.0 0
M  V30 2 C 1.299 0.0 0.0 0 CFG=2
M  V30 3 C 2.598 2.2499 0.0 0
M  V30 4 C 0.0 -0.75 0.0 0
M  V30 5 C 2.598 -0.75 0.0 0 CFG=1
M  V30 6 C 3.8971 1.4999 0.0 0
M  V30 7 C -1.299 0.0 0.0 0
M  V30 8 C 0.0 -2.25 0.0 0
M  V30 9 N 3.8971 0.0 0.0 0
M  V30 10 C 2.598 -2.25 0.0 0
M  V30 11 C -2.598 -0.7499 0.0 0
M  V30 12 C -1.299 -2.9999 0.0 0
M  V30 13 C -2.598 -2.2499 0.0 0
M  V30 END ATOM
M  V30 BEGIN BOND
M  V30 1 1 2 1
M  V30 2 1 1 3
M  V30 3 1 2 4 CFG=1
M  V30 4 1 5 2
M  V30 5 1 3 6
M  V30 6 2 4 7
M  V30 7 1 4 8
M  V30 8 1 5 9
M  V30 9 1 5 10 CFG=1
M  V30 10 1 7 11
M  V30 11 2 8 12
M  V30 12 2 11 13
M  V30 13 1 6 9
M  V30 14 1 12 13
M  V30 END BOND
M  V30 BEGIN COLLECTION
M  V30 MDLV30/STERAC1 ATOMS=(2 2 5)
M  V30 END COLLECTION
M  V30 END CTAB
M  END
>  <Molecule Name>
_c001

>  <status>
DISCONTINUED

>  <cas>
134-49-6

>  <name>
PHENMETRAZINE

>  <ID>
1764

>  <Smiles>
C[C@@H]1NCCO[C@@H]1c1ccccc1

$$$$
_c001
Actelion Java MolfileCreator 2.0

  0  0  0  0  0  0              0 V3000
M  V30 BEGIN CTAB
M  V30 COUNTS 13 14 0 0 0
M  V30 BEGIN ATOM
M  V30 1 O 1.299 1.5 0.0 0
M  V30 2 C 1.299 0.0 0.0 0 CFG=2
M  V30 3 C 2.598 2.2499 0.0 0
M  V30 4 C 0.0 -0.75 0.0 0
M  V30 5 C 2.598 -0.75 0.0 0 CFG=2
M  V30 6 C 3.8971 1.4999 0.0 0
M  V30 7 C -1.299 0.0 0.0 0
M  V30 8 C 0.0 -2.25 0.0 0
M  V30 9 N 3.8971 0.0 0.0 0
M  V30 10 C 2.598 -2.25 0.0 0
M  V30 11 C -2.598 -0.7499 0.0 0
M  V30 12 C -1.299 -2.9999 0.0 0
M  V30 13 C -2.598 -2.2499 0.0 0
M  V30 END ATOM
M  V30 BEGIN BOND
M  V30 1 1 2 1
M  V30 2 1 1 3
M  V30 3 1 2 4 CFG=1
M  V30 4 1 5 2
M  V30 5 1 3 6
M  V30 6 2 4 7
M  V30 7 1 4 8
M  V30 8 1 5 9
M  V30 9 1 5 10 CFG=3
M  V30 10 1 7 11
M  V30 11 2 8 12
M  V30 12 2 11 13
M  V30 13 1 6 9
M  V30 14 1 12 13
M  V30 END BOND
M  V30 BEGIN COLLECTION
M  V30 MDLV30/STERAC1 ATOMS=(2 2 5)
M  V30 END COLLECTION
M  V30 END CTAB
M  END
>  <Molecule Name>
_c001

>  <status>
DISCONTINUED

>  <cas>
134-49-6

>  <name>
PHENMETRAZINE

>  <ID>
1765

>  <Smiles>
C[C@H]1NCCO[C@@H]1c1ccccc1

$$$$
_c001
Actelion Java MolfileCreator 2.0

  0  0  0  0  0  0              0 V3000
M  V30 BEGIN CTAB
M  V30 COUNTS 13 14 0 0 0
M  V30 BEGIN ATOM
M  V30 1 O 1.299 1.5 0.0 0
M  V30 2 C 1.299 0.0 0.0 0 CFG=2
M  V30 3 C 2.598 2.2499 0.0 0
M  V30 4 C 0.0 -0.75 0.0 0
M  V30 5 C 2.598 -0.75 0.0 0 CFG=1
M  V30 6 C 3.8971 1.4999 0.0 0
M  V30 7 C -1.299 0.0 0.0 0
M  V30 8 C 0.0 -2.25 0.0 0
M  V30 9 N 3.8971 0.0 0.0 0
M  V30 10 C 2.598 -2.25 0.0 0
M  V30 11 C -2.598 -0.7499 0.0 0
M  V30 12 C -1.299 -2.9999 0.0 0
M  V30 13 C -2.598 -2.2499 0.0 0
M  V30 END ATOM
M  V30 BEGIN BOND
M  V30 1 1 2 1
M  V30 2 1 1 3
M  V30 3 1 2 4 CFG=1
M  V30 4 1 5 2
M  V30 5 1 3 6
M  V30 6 2 4 7
M  V30 7 1 4 8
M  V30 8 1 5 9
M  V30 9 1 5 10 CFG=1
M  V30 10 1 7 11
M  V30 11 2 8 12
M  V30 12 2 11 13
M  V30 13 1 6 9
M  V30 14 1 12 13
M  V30 END BOND
M  V30 BEGIN COLLECTION
M  V30 MDLV30/STERAC1 ATOMS=(2 2 5)
M  V30 END COLLECTION
M  V30 END CTAB
M  END
>  <Molecule Name>
_c001

>  <status>
DISCONTINUED

>  <cas>
134-49-6

>  <name>
PHENMETRAZINE

>  <ID>
1766

>  <Smiles>
C[C@@H]1NCCO[C@@H]1c1ccccc1

$$$$
_c001
Actelion Java MolfileCreator 2.0

  0  0  0  0  0  0              0 V3000
M  V30 BEGIN CTAB
M  V30 COUNTS 13 13 0 0 0
M  V30 BEGIN ATOM
M  V30 1 O -1.299 1.5 0.0 0
M  V30 2 C -1.299 0.0 0.0 0
M  V30 3 N -2.598 -0.7499 0.0 0
M  V30 4 C 0.0 -0.75 0.0 0
M  V30 5 C -2.598 -2.2499 0.0 0
M  V30 6 C 0.0 -2.25 0.0 0
M  V30 7 C 1.299 0.0 0.0 0
M  V30 8 C 1.299 -1.5 0.0 0
M  V30 9 C -1.299 -2.9999 0.0 0 CFG=1
M  V30 10 O 1.299 -3.0 0.0 0
M  V30 11 C 1.299 1.4999 0.0 0
M  V30 12 C 2.598 -0.75 0.0 0
M  V30 13 C -1.299 -4.4999 0.0 0
M  V30 END ATOM
M  V30 BEGIN BOND
M  V30 1 2 1 2
M  V30 2 1 2 3
M  V30 3 1 2 4
M  V30 4 1 3 5
M  V30 5 1 4 6
M  V30 6 1 4 7
M  V30 7 1 4 8
M  V30 8 1 9 5
M  V30 9 2 6 10
M  V30 10 1 7 11
M  V30 11 1 8 12
M  V30 12 1 9 13 CFG=1
M  V30 13 1 6 9
M  V30 END BOND
M  V30 BEGIN COLLECTION
M  V30 MDLV30/STERAC1 ATOMS=(1 9)
M  V30 END COLLECTION
M  V30 END CTAB
M  END
>  <Molecule Name>
_c001

>  <status>
DISCONTINUED

>  <cas>
125-64-4

>  <name>
METHYPRYLON

>  <ID>
1767

>  <Smiles>
CCC(CC)(C(C(C)CN1)=O)C1=O

$$$$
_c001
Actelion Java MolfileCreator 2.0

  0  0  0  0  0  0              0 V3000
M  V30 BEGIN CTAB
M  V30 COUNTS 16 16 0 0 0
M  V30 BEGIN ATOM
M  V30 1 O -2.598 -1.9999 0.0 0
M  V30 2 C -1.732 -1.4999 0.0 0
M  V30 3 N -0.866 -1.9999 0.0 0
M  V30 4 N -1.732 -0.4999 0.0 0
M  V30 5 C 0.0 -1.5 0.0 0
M  V30 6 C -0.866 0.0 0.0 0
M  V30 7 O 1.116 -2.0 0.0 0
M  V30 8 C 0.0 -0.5 0.0 0
M  V30 9 O -0.866 1.0 0.0 0
M  V30 10 C 0.866 -1.0 0.0 0 CFG=2
M  V30 11 C 0.866 0.0 0.0 0
M  V30 12 C 0.7847 -2.1815 0.0 0
M  V30 13 C 1.732 -0.5 0.0 0
M  V30 14 C 0.866 0.9999 0.0 0
M  V30 15 C 0.0 -2.5 0.0 0
M  V30 16 C 1.732 1.4999 0.0 0
M  V30 END ATOM
M  V30 BEGIN BOND
M  V30 1 2 1 2
M  V30 2 1 2 3
M  V30 3 1 2 4
M  V30 4 1 3 5
M  V30 5 1 4 6
M  V30 6 2 5 7
M  V30 7 1 5 8
M  V30 8 2 6 9
M  V30 9 1 10 8
M  V30 10 1 8 11
M  V30 11 1 10 12
M  V30 12 1 10 13 CFG=1
M  V30 13 1 11 14
M  V30 14 1 12 15
M  V30 15 2 14 16
M  V30 16 1 6 8
M  V30 END BOND
M  V30 BEGIN COLLECTION
M  V30 MDLV30/STERAC1 ATOMS=(1 10)
M  V30 END COLLECTION
M  V30 END CTAB
M  END
>  <Molecule Name>
_c001

>  <status>
DISCONTINUED

>  <cas>
115-44-6

>  <name>
TALBUTAL

>  <ID>
1768

>  <Smiles>
CCC(C)C(CC=C)(C(NC(N1)=O)=O)C1=O

$$$$
_c001
Actelion Java MolfileCreator 2.0

  0  0  0  0  0  0              0 V3000
M  V30 BEGIN CTAB
M  V30 COUNTS 14 15 0 0 0
M  V30 BEGIN ATOM
M  V30 1 O 0.866 0.0 0.0 0
M  V30 2 C 0.0 -0.5 0.0 0
M  V30 3 N -0.9135 -0.0932 0.0 0
M  V30 4 C -0.1045 -1.4945 0.0 0 CFG=1
M  V30 5 C -1.5826 -0.8364 0.0 0
M  V30 6 C -1.1214 0.8848 0.0 0
M  V30 7 C 0.6386 -2.1636 0.0 0
M  V30 8 C -1.0826 -1.7024 0.0 0
M  V30 9 O -2.5771 -0.7318 0.0 0
M  V30 10 C 0.4307 -3.1418 0.0 0
M  V30 11 C 1.5896 -1.8546 0.0 0
M  V30 12 C 1.1738 -3.8109 0.0 0
M  V30 13 C 2.3328 -2.5237 0.0 0
M  V30 14 C 2.1249 -3.5019 0.0 0
M  V30 END ATOM
M  V30 BEGIN BOND
M  V30 1 2 1 2
M  V30 2 1 2 3
M  V30 3 1 4 2
M  V30 4 1 3 5
M  V30 5 1 3 6
M  V30 6 1 4 7 CFG=1
M  V30 7 1 4 8
M  V30 8 2 5 9
M  V30 9 2 7 10
M  V30 10 1 7 11
M  V30 11 1 10 12
M  V30 12 2 11 13
M  V30 13 2 12 14
M  V30 14 1 5 8
M  V30 15 1 13 14
M  V30 END BOND
M  V30 BEGIN COLLECTION
M  V30 MDLV30/STERAC1 ATOMS=(1 4)
M  V30 END COLLECTION
M  V30 END CTAB
M  END
>  <Molecule Name>
_c001

>  <status>
DISCONTINUED

>  <cas>
86-34-0

>  <name>
PHENSUXIMIDE

>  <ID>
1769

>  <Smiles>
CN(C(CC1c2ccccc2)=O)C1=O

$$$$
_c001
Actelion Java MolfileCreator 2.0

  0  0  0  0  0  0              0 V3000
M  V30 BEGIN CTAB
M  V30 COUNTS 10 10 0 0 0
M  V30 BEGIN ATOM
M  V30 1 O 2.598 -0.75 0.0 0
M  V30 2 C 1.299 0.0 0.0 0
M  V30 3 O 1.299 1.5 0.0 0 CHG=-1
M  V30 4 C 0.0 -0.75 0.0 0
M  V30 5 C -1.299 0.0 0.0 0
M  V30 6 C 0.0 -2.25 0.0 0
M  V30 7 O -1.299 1.5 0.0 0
M  V30 8 C -2.598 -0.7499 0.0 0
M  V30 9 C -1.299 -2.9999 0.0 0
M  V30 10 C -2.598 -2.2499 0.0 0
M  V30 END ATOM
M  V30 BEGIN BOND
M  V30 1 2 1 2
M  V30 2 1 2 3
M  V30 3 1 2 4
M  V30 4 2 4 5
M  V30 5 1 4 6
M  V30 6 1 5 7
M  V30 7 1 5 8
M  V30 8 2 6 9
M  V30 9 2 8 10
M  V30 10 1 9 10
M  V30 END BOND
M  V30 END CTAB
M  END
>  <Molecule Name>
_c001

>  <status>
-

>  <cas>
69-72-7

>  <name>
M ASPIRIN

>  <ID>
1770

>  <Smiles>
[O-]C(c(cccc1)c1O)=O

$$$$
_c001
Actelion Java MolfileCreator 2.0

  0  0  0  0  0  0              0 V3000
M  V30 BEGIN CTAB
M  V30 COUNTS 26 29 0 0 0
M  V30 BEGIN ATOM
M  V30 1 O 9.8723 -9.8585 0.0 0
M  V30 2 C 8.8647 -8.7394 0.0 0
M  V30 3 C 7.3917 -9.0525 0.0 0
M  V30 4 C 9.33 -7.3072 0.0 0
M  V30 5 C 6.3841 -7.9334 0.0 0
M  V30 6 C 8.3224 -6.1881 0.0 0
M  V30 7 C 6.8494 -6.5012 0.0 0 CFG=1
M  V30 8 C 4.9111 -8.2465 0.0 0
M  V30 9 C 5.8418 -5.3821 0.0 0 CFG=2
M  V30 10 C 7.3148 -5.069 0.0 0
M  V30 11 C 3.9035 -7.1274 0.0 0
M  V30 12 C 6.3071 -3.9499 0.0 0
M  V30 13 C 4.3688 -5.6952 0.0 0 CFG=2
M  V30 14 O 7.7801 -3.6368 0.0 0
M  V30 15 C 5.2995 -2.8308 0.0 0
M  V30 16 C 3.3612 -4.5761 0.0 0 CFG=2
M  V30 17 C 3.8265 -3.1439 0.0 0 CFG=2
M  V30 18 C 1.8553 -4.5761 0.0 0
M  V30 19 C 2.6082 -2.2588 0.0 0 CFG=2
M  V30 20 C 4.2602 -1.7319 0.0 0
M  V30 21 C 1.3899 -3.1439 0.0 0
M  V30 22 O 3.7088 -1.4532 0.0 0
M  V30 23 C 2.6082 -0.7529 0.0 0
M  V30 24 O 3.9124 0.0 0.0 0
M  V30 25 C 1.3041 0.0 0.0 0
M  V30 26 O 0.0 -0.7529 0.0 0
M  V30 END ATOM
M  V30 BEGIN BOND
M  V30 1 2 1 2
M  V30 2 1 2 3
M  V30 3 1 2 4
M  V30 4 2 3 5
M  V30 5 1 4 6
M  V30 6 1 7 5
M  V30 7 1 5 8
M  V30 8 1 9 7
M  V30 9 1 7 10 CFG=1
M  V30 10 1 8 11
M  V30 11 1 9 12 CFG=1
M  V30 12 1 13 9
M  V30 13 2 12 14
M  V30 14 1 12 15
M  V30 15 1 16 13
M  V30 16 1 17 15
M  V30 17 1 16 18 CFG=1
M  V30 18 1 19 17
M  V30 19 1 17 20 CFG=1
M  V30 20 1 18 21
M  V30 21 1 19 22 CFG=3
M  V30 22 1 19 23
M  V30 23 2 23 24
M  V30 24 1 23 25
M  V30 25 1 25 26
M  V30 26 1 6 7
M  V30 27 1 13 11 CFG=3
M  V30 28 1 16 17
M  V30 29 1 19 21
M  V30 END BOND
M  V30 BEGIN COLLECTION
M  V30 MDLV30/STERAC1 ATOMS=(6 7 9 13 16 17 19)
M  V30 END COLLECTION
M  V30 END CTAB
M  END
>  <Molecule Name>
_c001

>  <status>
-

>  <cas>
53-06-5

>  <name>
CORTISONE

>  <ID>
1771

>  <Smiles>
C[C@@](C1)([C@H](CC2)[C@@H](CCC([C@@]3(C)CC4)=CC4=O)[C@H]3C1=O)[C@@]2(C(CO)=O)O

$$$$
_c001
Actelion Java MolfileCreator 2.0

  0  0  0  0  0  0              0 V3000
M  V30 BEGIN CTAB
M  V30 COUNTS 23 25 0 0 0
M  V30 BEGIN ATOM
M  V30 1 Cl 10.3923 -6.75 0.0 0
M  V30 2 C 10.3923 -5.25 0.0 0
M  V30 3 C 11.6913 -4.5 0.0 0
M  V30 4 C 9.0932 -4.5 0.0 0
M  V30 5 C 11.6913 -3.0 0.0 0
M  V30 6 C 9.0932 -3.0 0.0 0
M  V30 7 N 12.9903 -2.25 0.0 0
M  V30 8 C 10.3923 -2.25 0.0 0
M  V30 9 C 12.9903 -0.75 0.0 0
M  V30 10 C 10.3923 -0.75 0.0 0
M  V30 11 C 11.6913 0.0 0.0 0
M  V30 12 N 9.0932 0.0 0.0 0
M  V30 13 C 7.7942 -0.75 0.0 0
M  V30 14 C 6.4951 0.0 0.0 0
M  V30 15 C 7.7942 -2.2499 0.0 0
M  V30 16 C 5.1961 -0.75 0.0 0
M  V30 17 C 6.4951 -3.0 0.0 0
M  V30 18 C 5.1961 -2.2499 0.0 0
M  V30 19 C 3.8971 0.0 0.0 0
M  V30 20 O 3.8971 -2.9999 0.0 0
M  V30 21 N 2.598 -0.75 0.0 0
M  V30 22 C 1.299 0.0 0.0 0
M  V30 23 C 0.0 -0.75 0.0 0
M  V30 END ATOM
M  V30 BEGIN BOND
M  V30 1 1 1 2
M  V30 2 2 2 3
M  V30 3 1 2 4
M  V30 4 1 3 5
M  V30 5 2 4 6
M  V30 6 2 5 7
M  V30 7 1 5 8
M  V30 8 1 7 9
M  V30 9 2 8 10
M  V30 10 2 9 11
M  V30 11 1 10 12
M  V30 12 1 12 13
M  V30 13 2 13 14
M  V30 14 1 13 15
M  V30 15 1 14 16
M  V30 16 2 15 17
M  V30 17 2 16 18
M  V30 18 1 16 19
M  V30 19 1 18 20
M  V30 20 1 19 21
M  V30 21 1 21 22
M  V30 22 1 22 23
M  V30 23 1 6 8
M  V30 24 1 10 11
M  V30 25 1 17 18
M  V30 END BOND
M  V30 END CTAB
M  END
>  <Molecule Name>
_c001

>  <status>
-

>  <cas>
79352-78-6

>  <name>
M AMODIAQUINE

>  <ID>
1772

>  <Smiles>
CCNCc(cc(cc1)Nc2c(ccc(Cl)c3)c3ncc2)c1O

$$$$
_c001
Actelion Java MolfileCreator 2.0

  0  0  0  0  0  0              0 V3000
M  V30 BEGIN CTAB
M  V30 COUNTS 9 9 0 0 0
M  V30 BEGIN ATOM
M  V30 1 O 1.299 0.0 0.0 0
M  V30 2 C 0.0 -0.75 0.0 0
M  V30 3 O -1.3703 -0.1398 0.0 0
M  V30 4 N -0.1567 -2.2417 0.0 0
M  V30 5 C -2.374 -1.2546 0.0 0
M  V30 6 C -1.624 -2.5536 0.0 0
M  V30 7 C -3.5875 -0.3729 0.0 0
M  V30 8 C -3.7443 -1.8647 0.0 0
M  V30 9 O -2.2341 -3.9239 0.0 0
M  V30 END ATOM
M  V30 BEGIN BOND
M  V30 1 2 1 2
M  V30 2 1 2 3
M  V30 3 1 2 4
M  V30 4 1 3 5
M  V30 5 1 4 6
M  V30 6 1 5 7
M  V30 7 1 5 8
M  V30 8 2 6 9
M  V30 9 1 5 6
M  V30 END BOND
M  V30 END CTAB
M  END
>  <Molecule Name>
_c001

>  <status>
-

>  <cas>
695-53-4

>  <name>
M TRIMETHADIONE

>  <ID>
1773

>  <Smiles>
CC(C)(C(N1)=O)OC1=O

$$$$
_c001
Actelion Java MolfileCreator 2.0

  0  0  0  0  0  0              0 V3000
M  V30 BEGIN CTAB
M  V30 COUNTS 15 15 0 0 0
M  V30 BEGIN ATOM
M  V30 1 O 6.5204 -4.5175 0.0 0
M  V30 2 C 5.2163 -3.7646 0.0 0
M  V30 3 N 5.2163 -2.2587 0.0 0
M  V30 4 N 3.9122 -4.5175 0.0 0
M  V30 5 C 3.9122 -1.5058 0.0 0
M  V30 6 C 2.6081 -3.7646 0.0 0
M  V30 7 O 4.0628 -0.3011 0.0 0
M  V30 8 C 2.6081 -2.2587 0.0 0
M  V30 9 O 1.304 -4.5175 0.0 0
M  V30 10 C 2.6081 -0.7529 0.0 0 CFG=2
M  V30 11 C 1.304 -1.5058 0.0 0
M  V30 12 C 3.8192 0.1861 0.0 0
M  V30 13 C 1.304 0.0 0.0 0
M  V30 14 C 0.0 -2.2587 0.0 0
M  V30 15 C 5.2163 -0.7529 0.0 0
M  V30 END ATOM
M  V30 BEGIN BOND
M  V30 1 2 1 2
M  V30 2 1 2 3
M  V30 3 1 2 4
M  V30 4 1 3 5
M  V30 5 1 4 6
M  V30 6 2 5 7
M  V30 7 1 5 8
M  V30 8 2 6 9
M  V30 9 1 10 8
M  V30 10 1 8 11
M  V30 11 1 10 12
M  V30 12 1 10 13 CFG=1
M  V30 13 1 11 14
M  V30 14 1 12 15
M  V30 15 1 6 8
M  V30 END BOND
M  V30 BEGIN COLLECTION
M  V30 MDLV30/STERAC1 ATOMS=(1 10)
M  V30 END COLLECTION
M  V30 END CTAB
M  END
>  <Molecule Name>
_c001

>  <status>
DISCONTINUED

>  <cas>
125-40-6

>  <name>
BUTABARBITAL

>  <ID>
1774

>  <Smiles>
CCC(C)C(CC)(C(NC(N1)=O)=O)C1=O

$$$$
_c001
Actelion Java MolfileCreator 2.0

  0  0  0  0  0  0              0 V3000
M  V30 BEGIN CTAB
M  V30 COUNTS 26 27 0 0 0
M  V30 BEGIN ATOM
M  V30 1 F 8.6602 -0.5 0.0 0
M  V30 2 C 7.7942 0.0 0.0 0
M  V30 3 C 6.9282 -0.5 0.0 0
M  V30 4 O 6.0621 0.0 0.0 0
M  V30 5 C 5.1961 -0.5 0.0 0
M  V30 6 C 4.3301 0.0 0.0 0
M  V30 7 O 3.4641 -0.5 0.0 0
M  V30 8 C 2.598 0.0 0.0 0
M  V30 9 C 1.732 -0.5 0.0 0
M  V30 10 O 0.866 0.0 0.0 0
M  V30 11 C 0.0 -0.5 0.0 0
M  V30 12 N -0.866 0.0 0.0 0
M  V30 13 C 0.0 -1.4999 0.0 0
M  V30 14 C -1.732 -0.4999 0.0 0
M  V30 15 C -0.866 -1.9999 0.0 0
M  V30 16 C -1.732 -1.4999 0.0 0
M  V30 17 C -2.598 -1.9999 0.0 0
M  V30 18 C -3.4641 -1.4999 0.0 0
M  V30 19 C -4.3301 -1.9999 0.0 0
M  V30 20 C -5.1961 -1.4999 0.0 0
M  V30 21 C -4.3301 -2.9999 0.0 0
M  V30 22 C -6.0621 -1.9999 0.0 0
M  V30 23 C -5.1961 -3.4999 0.0 0
M  V30 24 C -6.0621 -2.9999 0.0 0
M  V30 25 N -6.9282 -3.4999 0.0 0
M  V30 26 C -6.9282 -4.4999 0.0 0
M  V30 END ATOM
M  V30 BEGIN BOND
M  V30 1 1 1 2
M  V30 2 1 2 3
M  V30 3 1 3 4
M  V30 4 1 4 5
M  V30 5 1 5 6
M  V30 6 1 6 7
M  V30 7 1 7 8
M  V30 8 1 8 9
M  V30 9 1 9 10
M  V30 10 1 10 11
M  V30 11 2 11 12
M  V30 12 1 11 13
M  V30 13 1 12 14
M  V30 14 2 13 15
M  V30 15 2 14 16
M  V30 16 1 16 17
M  V30 17 2 17 18
M  V30 18 1 18 19
M  V30 19 2 19 20
M  V30 20 1 19 21
M  V30 21 1 20 22
M  V30 22 2 21 23
M  V30 23 2 22 24
M  V30 24 1 24 25
M  V30 25 1 25 26
M  V30 26 1 15 16
M  V30 27 1 23 24
M  V30 END BOND
M  V30 END CTAB
M  END
>  <Molecule Name>
_c001

>  <status>
-

>  <cas>
956103-76-7

>  <name>
FLORBETAPIR

>  <ID>
1775

>  <Smiles>
CNc1ccc(/C=C/c(cc2)cnc2OCCOCCOCCF)cc1

$$$$
_c001
Actelion Java MolfileCreator 2.0

  0  0  0  0  0  0              0 V3000
M  V30 BEGIN CTAB
M  V30 COUNTS 19 21 0 0 0
M  V30 BEGIN ATOM
M  V30 1 S 5.2436 -1.5932 0.0 0
M  V30 2 C 4.3301 -1.9999 0.0 0
M  V30 3 C 5.9128 -2.3364 0.0 0
M  V30 4 N 4.4346 -2.9945 0.0 0
M  V30 5 C 3.4641 -1.4999 0.0 0
M  V30 6 C 5.4128 -3.2024 0.0 0
M  V30 7 C 6.9128 -2.3364 0.0 0
M  V30 8 C 3.4641 -0.5 0.0 0
M  V30 9 C 2.598 -1.9999 0.0 0
M  V30 10 C 5.9128 -4.0684 0.0 0
M  V30 11 C 7.4128 -3.2024 0.0 0
M  V30 12 C 2.598 0.0 0.0 0
M  V30 13 C 1.732 -1.5 0.0 0
M  V30 14 C 6.9128 -4.0684 0.0 0
M  V30 15 O 8.4128 -3.2024 0.0 0
M  V30 16 F 2.598 1.0 0.0 0
M  V30 17 C 1.732 -0.5 0.0 0
M  V30 18 N 0.866 0.0 0.0 0
M  V30 19 C 0.0 -0.5 0.0 0
M  V30 END ATOM
M  V30 BEGIN BOND
M  V30 1 1 1 2
M  V30 2 1 1 3
M  V30 3 2 2 4
M  V30 4 1 2 5
M  V30 5 2 3 6
M  V30 6 1 3 7
M  V30 7 2 5 8
M  V30 8 1 5 9
M  V30 9 1 6 10
M  V30 10 2 7 11
M  V30 11 1 8 12
M  V30 12 2 9 13
M  V30 13 2 10 14
M  V30 14 1 11 15
M  V30 15 1 12 16
M  V30 16 2 12 17
M  V30 17 1 17 18
M  V30 18 1 18 19
M  V30 19 1 4 6
M  V30 20 1 11 14
M  V30 21 1 13 17
M  V30 END BOND
M  V30 END CTAB
M  END
>  <Molecule Name>
_c001

>  <status>
-

>  <cas>
765922-62-1

>  <name>
FLUTEMETAMOL

>  <ID>
1776

>  <Smiles>
CNc(ccc(-c1nc(ccc(O)c2)c2s1)c1)c1F

$$$$
_c001
Actelion Java MolfileCreator 2.0

  0  0  0  0  0  0              0 V3000
M  V30 BEGIN CTAB
M  V30 COUNTS 26 27 0 0 0
M  V30 BEGIN ATOM
M  V30 1 F 8.6602 -0.5 0.0 0
M  V30 2 C 7.7942 0.0 0.0 0
M  V30 3 C 6.9282 -0.5 0.0 0
M  V30 4 O 6.0621 0.0 0.0 0
M  V30 5 C 5.1961 -0.5 0.0 0
M  V30 6 C 4.3301 0.0 0.0 0
M  V30 7 O 3.4641 -0.5 0.0 0
M  V30 8 C 2.598 0.0 0.0 0
M  V30 9 C 1.732 -0.5 0.0 0
M  V30 10 O 0.866 0.0 0.0 0
M  V30 11 C 0.0 -0.5 0.0 0
M  V30 12 C -0.866 0.0 0.0 0
M  V30 13 C 0.0 -1.4999 0.0 0
M  V30 14 C -1.732 -0.4999 0.0 0
M  V30 15 C -0.866 -1.9999 0.0 0
M  V30 16 C -1.732 -1.4999 0.0 0
M  V30 17 C -2.598 -1.9999 0.0 0
M  V30 18 C -3.4641 -1.4999 0.0 0
M  V30 19 C -4.3301 -1.9999 0.0 0
M  V30 20 C -5.1961 -1.4999 0.0 0
M  V30 21 C -4.3301 -2.9999 0.0 0
M  V30 22 C -6.0621 -1.9999 0.0 0
M  V30 23 C -5.1961 -3.4999 0.0 0
M  V30 24 C -6.0621 -2.9999 0.0 0
M  V30 25 N -6.9282 -3.4999 0.0 0
M  V30 26 C -6.9282 -4.4999 0.0 0
M  V30 END ATOM
M  V30 BEGIN BOND
M  V30 1 1 1 2
M  V30 2 1 2 3
M  V30 3 1 3 4
M  V30 4 1 4 5
M  V30 5 1 5 6
M  V30 6 1 6 7
M  V30 7 1 7 8
M  V30 8 1 8 9
M  V30 9 1 9 10
M  V30 10 1 10 11
M  V30 11 2 11 12
M  V30 12 1 11 13
M  V30 13 1 12 14
M  V30 14 2 13 15
M  V30 15 2 14 16
M  V30 16 1 16 17
M  V30 17 2 17 18
M  V30 18 1 18 19
M  V30 19 2 19 20
M  V30 20 1 19 21
M  V30 21 1 20 22
M  V30 22 2 21 23
M  V30 23 2 22 24
M  V30 24 1 24 25
M  V30 25 1 25 26
M  V30 26 1 15 16
M  V30 27 1 23 24
M  V30 END BOND
M  V30 END CTAB
M  END
>  <Molecule Name>
_c001

>  <status>
-

>  <cas>
902143-01-5

>  <name>
FLORBETABEN

>  <ID>
1777

>  <Smiles>
CNc1ccc(/C=C/c(cc2)ccc2OCCOCCOCCF)cc1

$$$$
_c001
Actelion Java MolfileCreator 2.0

  0  0  0  0  0  0              0 V3000
M  V30 BEGIN CTAB
M  V30 COUNTS 44 46 0 0 0
M  V30 BEGIN ATOM
M  V30 1 Cl 5.7452 -4.299 0.0 0
M  V30 2 C 6.4952 -3.0 0.0 0
M  V30 3 Cl 7.2452 -4.299 0.0 0
M  V30 4 P 5.1961 -2.25 0.0 0 CFG=2
M  V30 5 P 7.7942 -2.25 0.0 0
M  V30 6 O 4.4461 -3.549 0.0 0
M  V30 7 O 5.1961 -0.75 0.0 0
M  V30 8 O 3.6961 -2.2499 0.0 0 CHG=-1
M  V30 9 O 8.5442 -3.549 0.0 0
M  V30 10 O 9.0932 -1.5 0.0 0 CHG=-1
M  V30 11 O 7.0442 -0.9509 0.0 0 CHG=-1
M  V30 12 P 3.8971 0.0 0.0 0 CFG=1
M  V30 13 O 4.6471 1.299 0.0 0
M  V30 14 O 2.598 -0.75 0.0 0
M  V30 15 O 3.1471 1.299 0.0 0 CHG=-1
M  V30 16 C 1.299 0.0 0.0 0
M  V30 17 C 0.0 -0.75 0.0 0 CFG=2
M  V30 18 O -1.3703 -0.1398 0.0 0
M  V30 19 C -0.1567 -2.2417 0.0 0 CFG=2
M  V30 20 C -2.374 -1.2546 0.0 0 CFG=1
M  V30 21 O 0.9579 -3.2454 0.0 0
M  V30 22 C -1.624 -2.5536 0.0 0 CFG=1
M  V30 23 N -3.8658 -1.0978 0.0 0
M  V30 24 O -2.2341 -3.9239 0.0 0
M  V30 25 C -4.6158 0.2012 0.0 0
M  V30 26 C -4.8695 -2.2125 0.0 0
M  V30 27 N -4.1522 1.6278 0.0 0
M  V30 28 C -6.083 -0.1106 0.0 0
M  V30 29 N -6.2398 -1.6024 0.0 0
M  V30 30 C -5.1559 2.7425 0.0 0
M  V30 31 C -7.0867 1.004 0.0 0
M  V30 32 S -4.6924 4.1691 0.0 0
M  V30 33 N -6.6232 2.4306 0.0 0
M  V30 34 N -8.5539 0.6922 0.0 0
M  V30 35 C -5.6961 5.2838 0.0 0
M  V30 36 C -9.5576 1.8069 0.0 0
M  V30 37 C -5.2326 6.7104 0.0 0
M  V30 38 C -11.0248 1.495 0.0 0
M  V30 39 C -6.2363 7.8251 0.0 0
M  V30 40 S -12.0285 2.6097 0.0 0
M  V30 41 F -7.351 6.8214 0.0 0
M  V30 42 F -7.24 8.9398 0.0 0
M  V30 43 F -5.1216 8.8288 0.0 0
M  V30 44 C -13.4958 2.2979 0.0 0
M  V30 END ATOM
M  V30 BEGIN BOND
M  V30 1 1 1 2
M  V30 2 1 2 3
M  V30 3 1 4 2
M  V30 4 1 2 5
M  V30 5 2 4 6
M  V30 6 1 4 7
M  V30 7 1 4 8 CFG=1
M  V30 8 2 5 9
M  V30 9 1 5 10
M  V30 10 1 5 11
M  V30 11 1 12 7
M  V30 12 2 12 13
M  V30 13 1 12 14
M  V30 14 1 12 15 CFG=1
M  V30 15 1 14 16
M  V30 16 1 17 16 CFG=1
M  V30 17 1 17 18
M  V30 18 1 19 17
M  V30 19 1 20 18
M  V30 20 1 19 21 CFG=3
M  V30 21 1 22 19
M  V30 22 1 20 23 CFG=1
M  V30 23 1 22 24 CFG=3
M  V30 24 1 23 25
M  V30 25 1 23 26
M  V30 26 2 25 27
M  V30 27 1 25 28
M  V30 28 2 26 29
M  V30 29 1 27 30
M  V30 30 2 28 31
M  V30 31 1 30 32
M  V30 32 2 30 33
M  V30 33 1 31 34
M  V30 34 1 32 35
M  V30 35 1 34 36
M  V30 36 1 35 37
M  V30 37 1 36 38
M  V30 38 1 37 39
M  V30 39 1 38 40
M  V30 40 1 39 41
M  V30 41 1 39 42
M  V30 42 1 39 43
M  V30 43 1 40 44
M  V30 44 1 20 22
M  V30 45 1 28 29
M  V30 46 1 31 33
M  V30 END BOND
M  V30 BEGIN COLLECTION
M  V30 MDLV30/STERAC1 ATOMS=(6 4 12 17 19 20 22)
M  V30 END COLLECTION
M  V30 END CTAB
M  END
>  <Molecule Name>
_c001

>  <status>
-

>  <cas>
163706-06-7

>  <name>
CANGRELOR

>  <ID>
1778

>  <Smiles>
CSCCNc1c2ncn([C@H]([C@H]3O)O[C@@H](CO[P@@]([O-])(O[P@@](C(P([O-])([O-])=O)(Cl)Cl)([O-])=O)=O)[C@@H]3O)c2nc(SCCC(F)(F)F)n1

$$$$
_c001
Actelion Java MolfileCreator 2.0

  0  0  0  0  0  0              0 V3000
M  V30 BEGIN CTAB
M  V30 COUNTS 35 38 0 0 0
M  V30 BEGIN ATOM
M  V30 1 F 3.8301 6.866 0.0 0
M  V30 2 C 4.3301 6.0 0.0 0
M  V30 3 F 5.1961 6.5 0.0 0
M  V30 4 F 4.8301 5.1339 0.0 0
M  V30 5 O 3.4641 5.5 0.0 0
M  V30 6 C 3.4641 4.5 0.0 0
M  V30 7 C 2.598 4.0 0.0 0
M  V30 8 C 4.3301 4.0 0.0 0
M  V30 9 C 2.598 3.0 0.0 0
M  V30 10 C 4.3301 3.0 0.0 0
M  V30 11 C 3.4641 2.5 0.0 0
M  V30 12 C 3.4641 1.5 0.0 0
M  V30 13 C 2.598 1.0 0.0 0
M  V30 14 C 4.3301 1.0 0.0 0
M  V30 15 C 2.598 0.0 0.0 0
M  V30 16 C 1.732 1.5 0.0 0
M  V30 17 C 4.3301 0.0 0.0 0
M  V30 18 C 1.732 -0.5 0.0 0
M  V30 19 C 3.4641 -0.4999 0.0 0
M  V30 20 O 1.732 -1.5 0.0 0
M  V30 21 N 0.866 0.0 0.0 0
M  V30 22 C 0.0 -0.5 0.0 0
M  V30 23 C -0.866 0.0 0.0 0
M  V30 24 C 0.0 -1.4999 0.0 0
M  V30 25 N -1.732 -0.4999 0.0 0
M  V30 26 C -0.866 -1.9999 0.0 0
M  V30 27 C -1.732 -1.4999 0.0 0
M  V30 28 N -2.598 -1.9999 0.0 0
M  V30 29 C -3.4641 -1.4999 0.0 0
M  V30 30 C -2.598 -2.9999 0.0 0
M  V30 31 C -4.3301 -1.9999 0.0 0 CFG=1
M  V30 32 C -3.4641 -3.4999 0.0 0 CFG=2
M  V30 33 O -4.3301 -2.9999 0.0 0
M  V30 34 C -5.1961 -1.4999 0.0 0
M  V30 35 C -3.4641 -4.4999 0.0 0
M  V30 END ATOM
M  V30 BEGIN BOND
M  V30 1 1 1 2
M  V30 2 1 2 3
M  V30 3 1 2 4
M  V30 4 1 2 5
M  V30 5 1 5 6
M  V30 6 2 6 7
M  V30 7 1 6 8
M  V30 8 1 7 9
M  V30 9 2 8 10
M  V30 10 2 9 11
M  V30 11 1 11 12
M  V30 12 2 12 13
M  V30 13 1 12 14
M  V30 14 1 13 15
M  V30 15 1 13 16
M  V30 16 2 14 17
M  V30 17 1 15 18
M  V30 18 2 15 19
M  V30 19 2 18 20
M  V30 20 1 18 21
M  V30 21 1 21 22
M  V30 22 2 22 23
M  V30 23 1 22 24
M  V30 24 1 23 25
M  V30 25 2 24 26
M  V30 26 2 25 27
M  V30 27 1 27 28
M  V30 28 1 28 29
M  V30 29 1 28 30
M  V30 30 1 31 29
M  V30 31 1 32 30
M  V30 32 1 31 33
M  V30 33 1 31 34 CFG=1
M  V30 34 1 32 35 CFG=1
M  V30 35 1 10 11
M  V30 36 1 17 19
M  V30 37 1 26 27
M  V30 38 1 32 33
M  V30 END BOND
M  V30 BEGIN COLLECTION
M  V30 MDLV30/STEABS ATOMS=(2 31 32)
M  V30 END COLLECTION
M  V30 END CTAB
M  END
>  <Molecule Name>
_c001

>  <status>
-

>  <cas>
956697-53-3

>  <name>
SONIDEGIB

>  <ID>
1779

>  <Smiles>
C[C@H](C1)O[C@@H](C)CN1c(cc1)ncc1NC(c1cccc(-c(cc2)ccc2OC(F)(F)F)c1C)=O

$$$$
_c001
Actelion Java MolfileCreator 2.0

  0  0  0  0  0  0              0 V3000
M  V30 BEGIN CTAB
M  V30 COUNTS 31 35 0 0 0
M  V30 BEGIN ATOM
M  V30 1 S 8.4523 -4.4781 0.0 0
M  V30 2 C 8.6602 -3.5 0.0 0
M  V30 3 C 7.4578 -4.5826 0.0 0
M  V30 4 C 7.7942 -3.0 0.0 0
M  V30 5 C 9.5262 -3.0 0.0 0
M  V30 6 C 7.051 -3.6691 0.0 0
M  V30 7 C 7.7942 -2.0 0.0 0
M  V30 8 C 9.5262 -2.0 0.0 0
M  V30 9 N 6.9282 -1.5 0.0 0
M  V30 10 C 8.6602 -1.5 0.0 0
M  V30 11 C 6.9282 -0.5 0.0 0
M  V30 12 C 6.0621 -2.0 0.0 0
M  V30 13 C 6.0621 0.0 0.0 0
M  V30 14 C 5.1961 -1.5 0.0 0
M  V30 15 N 5.1961 -0.5 0.0 0
M  V30 16 C 4.3301 0.0 0.0 0
M  V30 17 C 3.4641 -0.5 0.0 0
M  V30 18 C 2.598 0.0 0.0 0
M  V30 19 C 1.732 -0.5 0.0 0
M  V30 20 O 0.866 0.0 0.0 0
M  V30 21 C 0.0 -0.5 0.0 0
M  V30 22 C -0.866 0.0 0.0 0
M  V30 23 C 0.0 -1.4999 0.0 0
M  V30 24 C -1.732 -0.4999 0.0 0
M  V30 25 C -0.866 -1.9999 0.0 0
M  V30 26 N -2.598 0.0 0.0 0
M  V30 27 C -1.732 -1.4999 0.0 0
M  V30 28 C -3.4641 -0.4999 0.0 0
M  V30 29 C -2.598 -1.9999 0.0 0
M  V30 30 O -4.3301 0.0 0.0 0
M  V30 31 C -3.4641 -1.4999 0.0 0
M  V30 END ATOM
M  V30 BEGIN BOND
M  V30 1 1 1 2
M  V30 2 1 1 3
M  V30 3 2 2 4
M  V30 4 1 2 5
M  V30 5 2 3 6
M  V30 6 1 4 7
M  V30 7 2 5 8
M  V30 8 1 7 9
M  V30 9 2 7 10
M  V30 10 1 9 11
M  V30 11 1 9 12
M  V30 12 1 11 13
M  V30 13 1 12 14
M  V30 14 1 13 15
M  V30 15 1 15 16
M  V30 16 1 16 17
M  V30 17 1 17 18
M  V30 18 1 18 19
M  V30 19 1 19 20
M  V30 20 1 20 21
M  V30 21 2 21 22
M  V30 22 1 21 23
M  V30 23 1 22 24
M  V30 24 2 23 25
M  V30 25 1 24 26
M  V30 26 2 24 27
M  V30 27 1 26 28
M  V30 28 1 27 29
M  V30 29 2 28 30
M  V30 30 1 28 31
M  V30 31 1 4 6
M  V30 32 1 8 10
M  V30 33 1 14 15
M  V30 34 1 25 27
M  V30 35 2 29 31
M  V30 END BOND
M  V30 END CTAB
M  END
>  <Molecule Name>
_c001

>  <status>
-

>  <cas>
913611-97-9

>  <name>
BREXPIPRAZOLE

>  <ID>
1780

>  <Smiles>
O=C1Nc(cc(cc2)OCCCCN(CC3)CCN3c3cccc4c3ccs4)c2C=C1

$$$$
_c001
Actelion Java MolfileCreator 2.0

  0  0  0  0  0  0              0 V3000
M  V30 BEGIN CTAB
M  V30 COUNTS 29 32 0 0 0
M  V30 BEGIN ATOM
M  V30 1 O -2.598 0.0 0.0 0
M  V30 2 C -1.732 -0.5 0.0 0
M  V30 3 O -1.732 -1.5 0.0 0 CHG=-1
M  V30 4 C -0.866 0.0 0.0 0
M  V30 5 C 0.0 -0.5 0.0 0
M  V30 6 C 0.866 0.0 0.0 0 CFG=2
M  V30 7 C 0.866 1.0 0.0 0 CFG=2
M  V30 8 C 1.732 -0.4999 0.0 0
M  V30 9 C 1.675 1.5877 0.0 0 CFG=1
M  V30 10 C 0.057 1.5877 0.0 0
M  V30 11 C 2.6531 1.3798 0.0 0 CFG=1
M  V30 12 C 1.366 2.5388 0.0 0 CFG=1
M  V30 13 C 1.8829 0.6096 0.0 0
M  V30 14 C 0.366 2.5388 0.0 0
M  V30 15 O 2.9622 0.4288 0.0 0
M  V30 16 C 3.3223 2.123 0.0 0
M  V30 17 C 2.0351 3.2819 0.0 0 CFG=1
M  V30 18 C 3.0133 3.074 0.0 0 CFG=1
M  V30 19 C 1.7261 4.233 0.0 0 CFG=2
M  V30 20 C 3.6824 3.8172 0.0 0 CFG=2
M  V30 21 O 0.7479 4.4409 0.0 0
M  V30 22 C 2.3952 4.9761 0.0 0
M  V30 23 C 3.3734 4.7682 0.0 0 CFG=1
M  V30 24 C 4.6605 3.6093 0.0 0
M  V30 25 C 3.9914 2.8661 0.0 0
M  V30 26 C 4.0425 5.5114 0.0 0
M  V30 27 C 5.3297 4.3524 0.0 0
M  V30 28 C 5.0206 5.3035 0.0 0 CFG=1
M  V30 29 O 5.6898 6.0466 0.0 0
M  V30 END ATOM
M  V30 BEGIN BOND
M  V30 1 2 1 2
M  V30 2 1 2 3
M  V30 3 1 2 4
M  V30 4 1 4 5
M  V30 5 1 6 5
M  V30 6 1 7 6
M  V30 7 1 6 8 CFG=3
M  V30 8 1 9 7
M  V30 9 1 7 10 CFG=1
M  V30 10 1 11 9
M  V30 11 1 12 9
M  V30 12 1 9 13 CFG=1
M  V30 13 1 10 14
M  V30 14 1 11 15 CFG=3
M  V30 15 1 11 16
M  V30 16 1 17 12 CFG=3
M  V30 17 1 18 16 CFG=1
M  V30 18 1 19 17
M  V30 19 1 20 18
M  V30 20 1 19 21 CFG=3
M  V30 21 1 19 22
M  V30 22 1 23 20
M  V30 23 1 20 24
M  V30 24 1 20 25 CFG=1
M  V30 25 1 23 26 CFG=1
M  V30 26 1 24 27
M  V30 27 1 28 26
M  V30 28 1 28 29 CFG=3
M  V30 29 1 12 14 CFG=1
M  V30 30 1 17 18
M  V30 31 1 22 23
M  V30 32 1 27 28
M  V30 END BOND
M  V30 BEGIN COLLECTION
M  V30 MDLV30/STERAC1 ATOMS=(11 6 7 9 11 12 17 18 19 20 23 28)
M  V30 END COLLECTION
M  V30 END CTAB
M  END
>  <Molecule Name>
_c001

>  <status>
-

>  <cas>
81-25-4

>  <name>
CHOLIC ACID

>  <ID>
1781

>  <Smiles>
C[C@H](CCC([O-])=O)[C@@H](CC[C@H]1[C@@H]([C@H](C2)[C@@](C)(CC[C@H](C3)O)[C@H]3C3)[C@@H]3O)[C@@]1(C)[C@H]2O

$$$$
_c001
Actelion Java MolfileCreator 2.0

  0  0  0  0  0  0              0 V3000
M  V30 BEGIN CTAB
M  V30 COUNTS 33 37 0 0 0
M  V30 BEGIN ATOM
M  V30 1 F 7.6167 -6.9012 0.0 0
M  V30 2 C 7.2283 -5.4515 0.0 0
M  V30 3 F 8.678 -5.8399 0.0 0
M  V30 4 O 7.4631 -3.9692 0.0 0
M  V30 5 O 5.746 -5.6863 0.0 0
M  V30 6 C 6.1258 -3.2878 0.0 0
M  V30 7 C 5.0646 -4.349 0.0 0
M  V30 8 C 5.7374 -1.8381 0.0 0
M  V30 9 C 3.6149 -3.9606 0.0 0
M  V30 10 C 4.2877 -1.4496 0.0 0
M  V30 11 C 3.243 -2.5178 0.0 0
M  V30 12 C 3.8992 0.0 0.0 0
M  V30 13 C 2.5995 -0.7504 0.0 0
M  V30 14 C 4.6497 1.2997 0.0 0
M  V30 15 C 5.4001 0.0 0.0 0
M  V30 16 O 2.5663 -2.2375 0.0 0
M  V30 17 N 1.2997 0.0 0.0 0
M  V30 18 C 0.0 -0.7504 0.0 0
M  V30 19 N 0.0 -2.2512 0.0 0
M  V30 20 C -1.2997 0.0 0.0 0
M  V30 21 C -1.2997 -3.0016 0.0 0
M  V30 22 C -2.5995 -0.7504 0.0 0
M  V30 23 C -1.2997 -4.5025 0.0 0
M  V30 24 C -2.5995 -2.2512 0.0 0
M  V30 25 C -2.5995 -5.2529 0.0 0
M  V30 26 C 0.0 -5.2529 0.0 0
M  V30 27 C -3.8992 -3.0016 0.0 0
M  V30 28 C -2.5995 -6.7537 0.0 0
M  V30 29 C 0.0 -6.7537 0.0 0
M  V30 30 C -3.8992 -7.5041 0.0 0
M  V30 31 C -1.2997 -7.5041 0.0 0
M  V30 32 O -5.199 -6.7537 0.0 0
M  V30 33 O -3.8992 -9.005 0.0 0 CHG=-1
M  V30 END ATOM
M  V30 BEGIN BOND
M  V30 1 1 1 2
M  V30 2 1 2 3
M  V30 3 1 2 4
M  V30 4 1 2 5
M  V30 5 1 4 6
M  V30 6 1 5 7
M  V30 7 1 6 8
M  V30 8 1 7 9
M  V30 9 2 8 10
M  V30 10 2 9 11
M  V30 11 1 10 12
M  V30 12 1 12 13
M  V30 13 1 12 14
M  V30 14 1 12 15
M  V30 15 2 13 16
M  V30 16 1 13 17
M  V30 17 1 17 18
M  V30 18 2 18 19
M  V30 19 1 18 20
M  V30 20 1 19 21
M  V30 21 2 20 22
M  V30 22 1 21 23
M  V30 23 2 21 24
M  V30 24 2 23 25
M  V30 25 1 23 26
M  V30 26 1 24 27
M  V30 27 1 25 28
M  V30 28 2 26 29
M  V30 29 1 28 30
M  V30 30 2 28 31
M  V30 31 2 30 32
M  V30 32 1 30 33
M  V30 33 2 6 7
M  V30 34 1 10 11
M  V30 35 1 14 15
M  V30 36 1 22 24
M  V30 37 1 29 31
M  V30 END BOND
M  V30 END CTAB
M  END
>  <Molecule Name>
_c001

>  <status>
-

>  <cas>
936727-05-8

>  <name>
LUMACAFTOR

>  <ID>
1782

>  <Smiles>
Cc(cc1)c(-c2cc(C([O-])=O)ccc2)nc1NC(C1(CC1)c(cc1)cc(O2)c1OC2(F)F)=O

$$$$
_c001
Actelion Java MolfileCreator 2.0

  0  0  0  0  0  0              0 V3000
M  V30 BEGIN CTAB
M  V30 COUNTS 34 37 0 0 0
M  V30 BEGIN ATOM
M  V30 1 O 8.81 1.5782 0.0 0
M  V30 2 C 9.0335 0.0949 0.0 0
M  V30 3 N 7.7942 -0.75 0.0 0
M  V30 4 C 10.4669 -0.3471 0.0 0
M  V30 5 C 7.6821 -2.2458 0.0 0
M  V30 6 C 6.4951 0.0 0.0 0
M  V30 7 C 11.0149 -1.7434 0.0 0
M  V30 8 C 8.7817 -3.266 0.0 0
M  V30 9 C 5.1961 -0.75 0.0 0
M  V30 10 C 10.2649 -3.0425 0.0 0
M  V30 11 C 12.5149 -1.7434 0.0 0
M  V30 12 C 3.8971 0.0 0.0 0
M  V30 13 C 11.0149 -4.3415 0.0 0
M  V30 14 C 13.2649 -3.0425 0.0 0
M  V30 15 N 2.598 -0.75 0.0 0
M  V30 16 C 12.5149 -4.3415 0.0 0
M  V30 17 O 14.7649 -3.0425 0.0 0
M  V30 18 C 1.299 0.0 0.0 0
M  V30 19 C 2.598 -2.25 0.0 0
M  V30 20 O 13.2649 -5.6405 0.0 0
M  V30 21 C 15.5149 -1.7434 0.0 0
M  V30 22 C 0.0 -0.75 0.0 0 CFG=2
M  V30 23 C 14.7649 -5.6405 0.0 0
M  V30 24 C -1.4488 -0.3617 0.0 0
M  V30 25 C -0.3882 -2.1988 0.0 0
M  V30 26 C -1.8371 -1.8106 0.0 0
M  V30 27 C -2.5095 0.6988 0.0 0
M  V30 28 C -3.286 -2.1988 0.0 0
M  V30 29 C -3.9584 0.3106 0.0 0
M  V30 30 C -4.3466 -1.1382 0.0 0
M  V30 31 O -5.019 1.3713 0.0 0
M  V30 32 O -5.7955 -1.5264 0.0 0
M  V30 33 C -6.4679 0.983 0.0 0
M  V30 34 C -6.1837 -2.9753 0.0 0
M  V30 END ATOM
M  V30 BEGIN BOND
M  V30 1 2 1 2
M  V30 2 1 2 3
M  V30 3 1 2 4
M  V30 4 1 3 5
M  V30 5 1 3 6
M  V30 6 1 4 7
M  V30 7 1 5 8
M  V30 8 1 6 9
M  V30 9 2 7 10
M  V30 10 1 7 11
M  V30 11 1 9 12
M  V30 12 1 10 13
M  V30 13 2 11 14
M  V30 14 1 12 15
M  V30 15 2 13 16
M  V30 16 1 14 17
M  V30 17 1 15 18
M  V30 18 1 15 19
M  V30 19 1 16 20
M  V30 20 1 17 21
M  V30 21 1 22 18 CFG=1
M  V30 22 1 20 23
M  V30 23 1 22 24
M  V30 24 1 22 25
M  V30 25 2 24 26
M  V30 26 1 24 27
M  V30 27 1 26 28
M  V30 28 2 27 29
M  V30 29 2 28 30
M  V30 30 1 29 31
M  V30 31 1 30 32
M  V30 32 1 31 33
M  V30 33 1 32 34
M  V30 34 1 8 10
M  V30 35 1 14 16
M  V30 36 1 25 26
M  V30 37 1 29 30
M  V30 END BOND
M  V30 BEGIN COLLECTION
M  V30 MDLV30/STERAC1 ATOMS=(1 22)
M  V30 END COLLECTION
M  V30 END CTAB
M  END
>  <Molecule Name>
_c001

>  <status>
-

>  <cas>
155974-00-8

>  <name>
IVABRADINE

>  <ID>
1783

>  <Smiles>
CN(CCCN(CCc(cc1OC)c(C2)cc1OC)C2=O)CC(C1)c(cc2OC)c1cc2OC

$$$$
_c001
Actelion Java MolfileCreator 2.0

  0  0  0  0  0  0              0 V3000
M  V30 BEGIN CTAB
M  V30 COUNTS 28 31 0 0 0
M  V30 BEGIN ATOM
M  V30 1 O -2.598 0.0 0.0 0
M  V30 2 C -1.732 -0.5 0.0 0
M  V30 3 O -1.732 -1.5 0.0 0 CHG=-1
M  V30 4 C -0.866 0.0 0.0 0
M  V30 5 C 0.0 -0.5 0.0 0
M  V30 6 C 0.866 0.0 0.0 0 CFG=2
M  V30 7 C 0.866 1.0 0.0 0 CFG=2
M  V30 8 C 1.732 -0.4999 0.0 0
M  V30 9 C 1.675 1.5877 0.0 0 CFG=1
M  V30 10 C 0.057 1.5877 0.0 0
M  V30 11 C 2.6531 1.3798 0.0 0 CFG=1
M  V30 12 C 1.366 2.5388 0.0 0 CFG=1
M  V30 13 C 1.8829 0.6096 0.0 0
M  V30 14 C 0.366 2.5388 0.0 0
M  V30 15 O 2.9622 0.4288 0.0 0
M  V30 16 C 3.3223 2.123 0.0 0
M  V30 17 C 2.0351 3.2819 0.0 0 CFG=1
M  V30 18 C 3.0133 3.074 0.0 0 CFG=1
M  V30 19 C 1.7261 4.233 0.0 0
M  V30 20 C 3.6824 3.8172 0.0 0 CFG=2
M  V30 21 C 2.3952 4.9761 0.0 0
M  V30 22 C 3.3734 4.7682 0.0 0 CFG=2
M  V30 23 C 4.6605 3.6093 0.0 0
M  V30 24 C 3.9914 2.8661 0.0 0
M  V30 25 C 4.0425 5.5114 0.0 0
M  V30 26 C 5.3297 4.3524 0.0 0
M  V30 27 C 5.0206 5.3035 0.0 0 CFG=1
M  V30 28 O 5.6898 6.0466 0.0 0
M  V30 END ATOM
M  V30 BEGIN BOND
M  V30 1 2 1 2
M  V30 2 1 2 3
M  V30 3 1 2 4
M  V30 4 1 4 5
M  V30 5 1 6 5
M  V30 6 1 7 6
M  V30 7 1 6 8 CFG=3
M  V30 8 1 9 7
M  V30 9 1 7 10 CFG=1
M  V30 10 1 11 9
M  V30 11 1 12 9
M  V30 12 1 9 13 CFG=1
M  V30 13 1 10 14
M  V30 14 1 11 15 CFG=3
M  V30 15 1 11 16
M  V30 16 1 17 12
M  V30 17 1 18 16 CFG=1
M  V30 18 1 17 19 CFG=3
M  V30 19 1 20 18
M  V30 20 1 19 21
M  V30 21 1 22 20
M  V30 22 1 20 23
M  V30 23 1 20 24 CFG=1
M  V30 24 1 22 25 CFG=3
M  V30 25 1 23 26
M  V30 26 1 27 25
M  V30 27 1 27 28 CFG=3
M  V30 28 1 12 14 CFG=1
M  V30 29 1 17 18
M  V30 30 1 21 22
M  V30 31 1 26 27
M  V30 END BOND
M  V30 BEGIN COLLECTION
M  V30 MDLV30/STERAC1 ATOMS=(10 6 7 9 11 12 17 18 20 22 27)
M  V30 END COLLECTION
M  V30 END CTAB
M  END
>  <Molecule Name>
_c001

>  <status>
-

>  <cas>
83-44-3

>  <name>
DEOXYCHOLIC ACID

>  <ID>
1784

>  <Smiles>
C[C@H](CCC([O-])=O)[C@@H](CC[C@H]1[C@H](CC2)[C@H](C3)[C@@](C)(CC4)[C@H]2C[C@@H]4O)[C@@]1(C)[C@H]3O

$$$$
_c001
Actelion Java MolfileCreator 2.0

  0  0  0  0  0  0              0 V3000
M  V30 BEGIN CTAB
M  V30 COUNTS 54 59 0 0 0
M  V30 BEGIN ATOM
M  V30 1 O 5.8596 -8.7578 0.0 0
M  V30 2 C 7.3514 -8.9146 0.0 0
M  V30 3 O 7.9615 -10.2849 0.0 0
M  V30 4 N 8.2331 -7.701 0.0 0
M  V30 5 C 7.0798 -11.4984 0.0 0
M  V30 6 C 7.623 -6.3307 0.0 0 CFG=2
M  V30 7 C 6.1312 -6.1739 0.0 0
M  V30 8 C 8.5046 -5.1172 0.0 0
M  V30 9 O 5.2495 -7.3874 0.0 0
M  V30 10 N 5.5211 -4.8036 0.0 0
M  V30 11 C 9.9964 -5.274 0.0 0
M  V30 12 C 7.8945 -3.7469 0.0 0
M  V30 13 C 4.0539 -4.4917 0.0 0 CFG=2
M  V30 14 C 6.2711 -3.5046 0.0 0
M  V30 15 C 2.9391 -5.4954 0.0 0
M  V30 16 C 3.8971 -3.0 0.0 0
M  V30 17 C 5.2674 -2.3898 0.0 0
M  V30 18 N 1.4719 -5.1836 0.0 0
M  V30 19 N 3.0959 -6.9872 0.0 0
M  V30 20 C 0.7219 -6.4826 0.0 0
M  V30 21 C 1.7256 -7.5973 0.0 0
M  V30 22 C 1.4137 -9.0645 0.0 0
M  V30 23 C -0.0127 -9.5281 0.0 0
M  V30 24 C 2.5285 -10.0682 0.0 0
M  V30 25 C -0.3246 -10.9953 0.0 0
M  V30 26 C 2.2166 -11.5355 0.0 0
M  V30 27 C 0.79 -11.999 0.0 0
M  V30 28 C 0.4781 -13.4662 0.0 0
M  V30 29 C -0.9483 -13.9297 0.0 0
M  V30 30 C 1.5929 -14.4699 0.0 0
M  V30 31 C -1.2602 -15.3969 0.0 0
M  V30 32 C 1.281 -15.9371 0.0 0
M  V30 33 C -0.1455 -16.4006 0.0 0
M  V30 34 C -0.4574 -17.8679 0.0 0
M  V30 35 N -1.8277 -18.478 0.0 0
M  V30 36 C 0.5462 -18.9826 0.0 0
M  V30 37 C -1.6709 -19.9698 0.0 0
M  V30 38 N -0.2037 -20.2816 0.0 0
M  V30 39 C -2.7856 -20.9735 0.0 0 CFG=1
M  V30 40 N -4.2528 -20.6616 0.0 0
M  V30 41 C -2.6288 -22.4652 0.0 0
M  V30 42 C -4.8629 -19.2913 0.0 0
M  V30 43 C -5.0028 -21.9606 0.0 0
M  V30 44 C -3.9991 -23.0753 0.0 0
M  V30 45 O -3.9812 -18.0777 0.0 0
M  V30 46 C -6.3547 -19.1345 0.0 0 CFG=1
M  V30 47 N -6.9648 -17.7642 0.0 0
M  V30 48 C -7.2364 -20.348 0.0 0
M  V30 49 C -8.4566 -17.6074 0.0 0
M  V30 50 C -8.7282 -20.1912 0.0 0
M  V30 51 C -6.6263 -21.7183 0.0 0
M  V30 52 O -9.3383 -18.8209 0.0 0
M  V30 53 O -9.0667 -16.237 0.0 0
M  V30 54 C -10.5585 -16.0802 0.0 0
M  V30 END ATOM
M  V30 BEGIN BOND
M  V30 1 2 1 2
M  V30 2 1 2 3
M  V30 3 1 2 4
M  V30 4 1 3 5
M  V30 5 1 6 4 CFG=3
M  V30 6 1 6 7
M  V30 7 1 6 8
M  V30 8 2 7 9
M  V30 9 1 7 10
M  V30 10 1 8 11
M  V30 11 1 8 12
M  V30 12 1 13 10
M  V30 13 1 10 14
M  V30 14 1 13 15 CFG=3
M  V30 15 1 13 16
M  V30 16 1 14 17
M  V30 17 2 15 18
M  V30 18 1 15 19
M  V30 19 1 18 20
M  V30 20 1 19 21
M  V30 21 1 21 22
M  V30 22 2 22 23
M  V30 23 1 22 24
M  V30 24 1 23 25
M  V30 25 2 24 26
M  V30 26 2 25 27
M  V30 27 1 27 28
M  V30 28 2 28 29
M  V30 29 1 28 30
M  V30 30 1 29 31
M  V30 31 2 30 32
M  V30 32 2 31 33
M  V30 33 1 33 34
M  V30 34 1 34 35
M  V30 35 2 34 36
M  V30 36 1 35 37
M  V30 37 1 36 38
M  V30 38 1 39 37 CFG=3
M  V30 39 1 39 40
M  V30 40 1 39 41
M  V30 41 1 40 42
M  V30 42 1 40 43
M  V30 43 1 41 44
M  V30 44 2 42 45
M  V30 45 1 46 42
M  V30 46 1 46 47 CFG=3
M  V30 47 1 46 48
M  V30 48 1 47 49
M  V30 49 1 48 50
M  V30 50 1 48 51
M  V30 51 2 49 52
M  V30 52 1 49 53
M  V30 53 1 53 54
M  V30 54 1 16 17
M  V30 55 2 20 21
M  V30 56 1 26 27
M  V30 57 1 32 33
M  V30 58 2 37 38
M  V30 59 1 43 44
M  V30 END BOND
M  V30 BEGIN COLLECTION
M  V30 MDLV30/STERAC1 ATOMS=(4 6 13 39 46)
M  V30 END COLLECTION
M  V30 END CTAB
M  END
>  <Molecule Name>
_c001

>  <status>
DISCONTINUED

>  <cas>
1009119-64-5

>  <name>
DACLATASVIR

>  <ID>
1785

>  <Smiles>
CC(C)[C@@H](C(N(CCC1)[C@@H]1c1ncc(-c(cc2)ccc2-c(cc2)ccc2-c2cnc([C@H](CCC3)N3C([C@H](C(C)C)NC(OC)=O)=O)[nH]2)[nH]1)=O)NC(OC)=O

$$$$
_c001
Actelion Java MolfileCreator 2.0

  0  0  0  0  0  0              0 V3000
M  V30 BEGIN CTAB
M  V30 COUNTS 42 45 0 0 0
M  V30 BEGIN ATOM
M  V30 1 O 2.598 3.7499 0.0 0
M  V30 2 C 3.8971 4.4999 0.0 0
M  V30 3 O 3.8971 5.9999 0.0 0 CHG=-1
M  V30 4 C 5.1961 3.7499 0.0 0
M  V30 5 C 6.4951 4.5 0.0 0
M  V30 6 C 5.1961 2.2499 0.0 0
M  V30 7 O 6.4951 5.9999 0.0 0
M  V30 8 C 7.7942 3.7499 0.0 0
M  V30 9 C 6.4951 1.4999 0.0 0
M  V30 10 C 7.7942 6.7499 0.0 0
M  V30 11 C 7.7942 2.25 0.0 0
M  V30 12 C 6.4951 0.0 0.0 0
M  V30 13 N 5.1961 -0.75 0.0 0
M  V30 14 C 3.8971 0.0 0.0 0
M  V30 15 C 5.1961 -2.25 0.0 0 CFG=2
M  V30 16 O 3.8971 1.5 0.0 0
M  V30 17 C 2.598 -0.75 0.0 0 CFG=1
M  V30 18 C 6.4951 -2.9999 0.0 0
M  V30 19 C 3.8971 -3.0 0.0 0
M  V30 20 N 1.299 0.0 0.0 0
M  V30 21 C 2.598 -2.25 0.0 0
M  V30 22 N 6.6519 -4.4917 0.0 0
M  V30 23 N 7.8655 -2.3898 0.0 0
M  V30 24 C 1.299 -3.0 0.0 0
M  V30 25 C 8.1192 -4.8036 0.0 0
M  V30 26 C 8.8692 -3.5046 0.0 0
M  V30 27 C 1.299 -4.5 0.0 0
M  V30 28 C 0.0 -2.25 0.0 0
M  V30 29 C 10.3609 -3.3478 0.0 0
M  V30 30 C 0.0 -5.25 0.0 0
M  V30 31 C 2.598 -5.2499 0.0 0
M  V30 32 C -1.299 -3.0 0.0 0
M  V30 33 C 0.0 -0.75 0.0 0
M  V30 34 C 11.2426 -4.5613 0.0 0
M  V30 35 C 10.971 -1.9775 0.0 0
M  V30 36 C -1.299 -4.5 0.0 0
M  V30 37 C 12.7344 -4.4045 0.0 0
M  V30 38 C 12.4628 -1.8207 0.0 0
M  V30 39 C -2.598 -5.25 0.0 0
M  V30 40 C 13.3445 -3.0342 0.0 0
M  V30 41 O -2.598 -6.75 0.0 0
M  V30 42 N -3.8971 -4.5 0.0 0
M  V30 END ATOM
M  V30 BEGIN BOND
M  V30 1 2 1 2
M  V30 2 1 2 3
M  V30 3 1 2 4
M  V30 4 2 4 5
M  V30 5 1 4 6
M  V30 6 1 5 7
M  V30 7 1 5 8
M  V30 8 2 6 9
M  V30 9 1 7 10
M  V30 10 2 8 11
M  V30 11 1 9 12
M  V30 12 1 12 13
M  V30 13 1 13 14
M  V30 14 1 15 13 CFG=3
M  V30 15 2 14 16
M  V30 16 1 17 14
M  V30 17 1 15 18
M  V30 18 1 15 19
M  V30 19 1 17 20 CFG=3
M  V30 20 1 17 21
M  V30 21 2 18 22
M  V30 22 1 18 23
M  V30 23 1 21 24
M  V30 24 1 22 25
M  V30 25 1 23 26
M  V30 26 2 24 27
M  V30 27 1 24 28
M  V30 28 1 26 29
M  V30 29 1 27 30
M  V30 30 1 27 31
M  V30 31 2 28 32
M  V30 32 1 28 33
M  V30 33 2 29 34
M  V30 34 1 29 35
M  V30 35 2 30 36
M  V30 36 1 34 37
M  V30 37 2 35 38
M  V30 38 1 36 39
M  V30 39 2 37 40
M  V30 40 2 39 41
M  V30 41 1 39 42
M  V30 42 1 9 11
M  V30 43 2 25 26
M  V30 44 1 32 36
M  V30 45 1 38 40
M  V30 END BOND
M  V30 BEGIN COLLECTION
M  V30 MDLV30/STERAC1 ATOMS=(2 15 17)
M  V30 END COLLECTION
M  V30 END CTAB
M  END
>  <Molecule Name>
_c001

>  <status>
-

>  <cas>
864821-90-9

>  <name>
ELUXADOLINE

>  <ID>
1786

>  <Smiles>
C[C@@H](c1ncc(-c2ccccc2)[nH]1)N(Cc(cc1)cc(C([O-])=O)c1OC)C([C@H](Cc(c(C)c1)c(C)cc1C(N)=O)N)=O

$$$$
_c001
Actelion Java MolfileCreator 2.0

  0  0  0  0  0  0              0 V3000
M  V30 BEGIN CTAB
M  V30 COUNTS 51 55 0 0 0
M  V30 BEGIN ATOM
M  V30 1 S 13.3219 -14.7406 0.0 0
M  V30 2 C 12.5705 -13.4391 0.0 0
M  V30 3 C 14.7918 -14.4281 0.0 0
M  V30 4 N 13.5761 -12.3224 0.0 0
M  V30 5 C 11.076 -13.2821 0.0 0 CFG=2
M  V30 6 C 14.9489 -12.9336 0.0 0
M  V30 7 C 10.4648 -11.9092 0.0 0 CFG=2
M  V30 8 C 10.5149 -14.6911 0.0 0
M  V30 9 C 16.2503 -12.1822 0.0 0
M  V30 10 O 8.9703 -11.7521 0.0 0
M  V30 11 C 9.5815 -13.125 0.0 0
M  V30 12 C 11.3481 -10.6935 0.0 0
M  V30 13 C 16.2503 -10.6795 0.0 0
M  V30 14 C 17.5517 -12.9336 0.0 0
M  V30 15 C 8.087 -12.9679 0.0 0
M  V30 16 C 10.0159 -14.4274 0.0 0
M  V30 17 N 10.7369 -9.3206 0.0 0
M  V30 18 C 17.5517 -9.9281 0.0 0
M  V30 19 C 18.8532 -12.1822 0.0 0
M  V30 20 F 7.4758 -11.5951 0.0 0
M  V30 21 C 7.2037 -14.1836 0.0 0
M  V30 22 C 9.3094 -15.7136 0.0 0
M  V30 23 N 11.4882 -8.0192 0.0 0
M  V30 24 C 9.267 -9.0082 0.0 0
M  V30 25 C 18.8532 -10.6795 0.0 0
M  V30 26 C 7.8149 -15.5565 0.0 0
M  V30 27 F 9.9207 -17.0864 0.0 0
M  V30 28 C 10.4827 -6.9025 0.0 0
M  V30 29 N 9.1099 -7.5137 0.0 0 CHG=1
M  V30 30 C 20.1546 -9.9281 0.0 0
M  V30 31 C 7.8085 -6.7623 0.0 0 CFG=2
M  V30 32 N 21.456 -9.1767 0.0 0
M  V30 33 O 7.8085 -5.2596 0.0 0
M  V30 34 C 6.507 -7.5137 0.0 0
M  V30 35 C 6.507 -4.5082 0.0 0
M  V30 36 O 5.2056 -5.2596 0.0 0
M  V30 37 N 6.507 -3.0054 0.0 0
M  V30 38 C 7.8085 -2.2541 0.0 0
M  V30 39 C 5.2056 -2.2541 0.0 0
M  V30 40 N 9.1099 -3.0054 0.0 0
M  V30 41 C 7.8085 -0.7513 0.0 0
M  V30 42 C 10.4113 -2.2541 0.0 0
M  V30 43 C 9.1099 0.0 0.0 0
M  V30 44 C 6.507 0.0 0.0 0
M  V30 45 C 10.4113 -0.7513 0.0 0
M  V30 46 O 5.2056 -0.7513 0.0 0
M  V30 47 C 3.9042 0.0 0.0 0
M  V30 48 O 3.9042 1.5027 0.0 0
M  V30 49 C 2.6028 -0.7513 0.0 0
M  V30 50 N 1.3014 0.0 0.0 0
M  V30 51 C 0.0 -0.7513 0.0 0
M  V30 END ATOM
M  V30 BEGIN BOND
M  V30 1 1 1 2
M  V30 2 1 1 3
M  V30 3 2 2 4
M  V30 4 1 5 2
M  V30 5 2 3 6
M  V30 6 1 7 5
M  V30 7 1 5 8 CFG=1
M  V30 8 1 6 9
M  V30 9 1 7 10
M  V30 10 1 7 11 CFG=3
M  V30 11 1 7 12
M  V30 12 2 9 13
M  V30 13 1 9 14
M  V30 14 2 11 15
M  V30 15 1 11 16
M  V30 16 1 12 17
M  V30 17 1 13 18
M  V30 18 2 14 19
M  V30 19 1 15 20
M  V30 20 1 15 21
M  V30 21 2 16 22
M  V30 22 1 17 23
M  V30 23 1 17 24
M  V30 24 2 18 25
M  V30 25 2 21 26
M  V30 26 1 22 27
M  V30 27 2 23 28
M  V30 28 2 24 29
M  V30 29 1 25 30
M  V30 30 1 31 29
M  V30 31 3 30 32
M  V30 32 1 31 33 CFG=1
M  V30 33 1 31 34
M  V30 34 1 33 35
M  V30 35 2 35 36
M  V30 36 1 35 37
M  V30 37 1 37 38
M  V30 38 1 37 39
M  V30 39 2 38 40
M  V30 40 1 38 41
M  V30 41 1 40 42
M  V30 42 2 41 43
M  V30 43 1 41 44
M  V30 44 2 42 45
M  V30 45 1 44 46
M  V30 46 1 46 47
M  V30 47 2 47 48
M  V30 48 1 47 49
M  V30 49 1 49 50
M  V30 50 1 50 51
M  V30 51 1 4 6
M  V30 52 1 19 25
M  V30 53 1 22 26
M  V30 54 1 28 29
M  V30 55 1 43 45
M  V30 END BOND
M  V30 BEGIN COLLECTION
M  V30 MDLV30/STERAC1 ATOMS=(3 5 7 31)
M  V30 END COLLECTION
M  V30 END CTAB
M  END
>  <Molecule Name>
_c001

>  <status>
-

>  <cas>
742049-41-8

>  <name>
ISAVUCONAZONIUM

>  <ID>
1787

>  <Smiles>
C[C@@H]([C@@](Cn1nc[n+]([C@@H](C)OC(N(C)c2ncccc2COC(CNC)=O)=O)c1)(c(cc(cc1)F)c1F)O)c1nc(-c(cc2)ccc2C#N)cs1

$$$$
_c001
Actelion Java MolfileCreator 2.0

  0  0  0  0  0  0              0 V3000
M  V30 BEGIN CTAB
M  V30 COUNTS 31 34 0 0 0
M  V30 BEGIN ATOM
M  V30 1 S 5.1425 2.3965 0.0 0
M  V30 2 C 3.9214 1.5093 0.0 0
M  V30 3 C 4.6761 3.832 0.0 0
M  V30 4 N 2.7003 2.3965 0.0 0
M  V30 5 C 3.9214 0.0 0.0 0 CFG=2
M  V30 6 C 3.1667 3.832 0.0 0
M  V30 7 C 2.6143 -0.7546 0.0 0 CFG=2
M  V30 8 C 5.2286 -0.3773 0.0 0
M  V30 9 C 2.2795 5.0531 0.0 0
M  V30 10 O 2.6143 -2.264 0.0 0
M  V30 11 C 3.9214 -1.5093 0.0 0
M  V30 12 C 1.3071 0.0 0.0 0
M  V30 13 C 0.7784 4.8953 0.0 0
M  V30 14 C 2.8935 6.432 0.0 0
M  V30 15 C 3.9214 -3.0187 0.0 0
M  V30 16 C 5.2286 -0.9433 0.0 0
M  V30 17 N 0.0 -0.7546 0.0 0
M  V30 18 C -0.1086 6.1165 0.0 0
M  V30 19 C 2.0063 7.6531 0.0 0
M  V30 20 F 2.6143 -3.7734 0.0 0
M  V30 21 C 5.2286 -3.7734 0.0 0
M  V30 22 C 6.5357 -1.5093 0.0 0
M  V30 23 N -1.3788 -0.1407 0.0 0
M  V30 24 C -0.1577 -2.2557 0.0 0
M  V30 25 C 0.5052 7.4953 0.0 0
M  V30 26 C 6.5357 -3.0187 0.0 0
M  V30 27 F 7.8429 -0.7546 0.0 0
M  V30 28 C -2.3888 -1.2624 0.0 0
M  V30 29 N -1.6341 -2.5696 0.0 0
M  V30 30 C -0.3819 8.7164 0.0 0
M  V30 31 N -1.2691 9.9376 0.0 0
M  V30 END ATOM
M  V30 BEGIN BOND
M  V30 1 1 1 2
M  V30 2 1 1 3
M  V30 3 2 2 4
M  V30 4 1 5 2
M  V30 5 2 3 6
M  V30 6 1 7 5
M  V30 7 1 5 8 CFG=1
M  V30 8 1 6 9
M  V30 9 1 7 10
M  V30 10 1 7 11 CFG=3
M  V30 11 1 7 12
M  V30 12 2 9 13
M  V30 13 1 9 14
M  V30 14 2 11 15
M  V30 15 1 11 16
M  V30 16 1 12 17
M  V30 17 1 13 18
M  V30 18 2 14 19
M  V30 19 1 15 20
M  V30 20 1 15 21
M  V30 21 2 16 22
M  V30 22 1 17 23
M  V30 23 1 17 24
M  V30 24 2 18 25
M  V30 25 2 21 26
M  V30 26 1 22 27
M  V30 27 2 23 28
M  V30 28 2 24 29
M  V30 29 1 25 30
M  V30 30 3 30 31
M  V30 31 1 4 6
M  V30 32 1 19 25
M  V30 33 1 22 26
M  V30 34 1 28 29
M  V30 END BOND
M  V30 BEGIN COLLECTION
M  V30 MDLV30/STERAC1 ATOMS=(2 5 7)
M  V30 END COLLECTION
M  V30 END CTAB
M  END
>  <Molecule Name>
_c001

>  <status>
-

>  <cas>
241479-67-4

>  <name>
ISAVUCONAZOLE

>  <ID>
1788

>  <Smiles>
C[C@@H]([C@@](Cn1ncnc1)(c(cc(cc1)F)c1F)O)c1nc(-c(cc2)ccc2C#N)cs1

$$$$
_c001
Actelion Java MolfileCreator 2.0

  0  0  0  0  0  0              0 V3000
M  V30 BEGIN CTAB
M  V30 COUNTS 30 31 0 0 0
M  V30 BEGIN ATOM
M  V30 1 O 7.7942 1.0 0.0 0
M  V30 2 C 7.7942 0.0 0.0 0
M  V30 3 O 8.6602 -0.5 0.0 0
M  V30 4 C 6.9282 -0.5 0.0 0 CFG=1
M  V30 5 C 9.5262 0.0 0.0 0
M  V30 6 C 6.0621 0.0 0.0 0
M  V30 7 C 6.9282 -1.4999 0.0 0
M  V30 8 C 10.3923 -0.5 0.0 0
M  V30 9 C 5.1961 -0.5 0.0 0 CFG=2
M  V30 10 N 4.3301 0.0 0.0 0
M  V30 11 C 5.1961 -1.5 0.0 0
M  V30 12 C 4.3301 1.0 0.0 0
M  V30 13 C 4.3301 -1.9999 0.0 0
M  V30 14 O 5.1961 1.5 0.0 0
M  V30 15 C 3.4641 1.5 0.0 0
M  V30 16 C 4.3301 -2.9999 0.0 0
M  V30 17 C 3.4641 -1.4999 0.0 0
M  V30 18 C 3.4641 2.5 0.0 0
M  V30 19 C 3.4641 -3.4999 0.0 0
M  V30 20 C 2.598 -1.9999 0.0 0
M  V30 21 C 2.598 3.0 0.0 0
M  V30 22 C 2.598 -2.9999 0.0 0
M  V30 23 O 1.732 2.5 0.0 0
M  V30 24 O 2.598 4.0 0.0 0 CHG=-1
M  V30 25 C 1.732 -3.4999 0.0 0
M  V30 26 C 1.732 -4.4999 0.0 0
M  V30 27 C 0.866 -2.9999 0.0 0
M  V30 28 C 0.866 -4.9999 0.0 0
M  V30 29 C 0.0 -3.4999 0.0 0
M  V30 30 C 0.0 -4.4999 0.0 0
M  V30 END ATOM
M  V30 BEGIN BOND
M  V30 1 2 1 2
M  V30 2 1 2 3
M  V30 3 1 4 2
M  V30 4 1 3 5
M  V30 5 1 4 6
M  V30 6 1 4 7 CFG=3
M  V30 7 1 5 8
M  V30 8 1 9 6
M  V30 9 1 9 10 CFG=1
M  V30 10 1 9 11
M  V30 11 1 10 12
M  V30 12 1 11 13
M  V30 13 2 12 14
M  V30 14 1 12 15
M  V30 15 2 13 16
M  V30 16 1 13 17
M  V30 17 1 15 18
M  V30 18 1 16 19
M  V30 19 2 17 20
M  V30 20 1 18 21
M  V30 21 2 19 22
M  V30 22 2 21 23
M  V30 23 1 21 24
M  V30 24 1 22 25
M  V30 25 2 25 26
M  V30 26 1 25 27
M  V30 27 1 26 28
M  V30 28 2 27 29
M  V30 29 2 28 30
M  V30 30 1 20 22
M  V30 31 1 29 30
M  V30 END BOND
M  V30 BEGIN COLLECTION
M  V30 MDLV30/STERAC1 ATOMS=(2 4 9)
M  V30 END COLLECTION
M  V30 END CTAB
M  END
>  <Molecule Name>
_c001

>  <status>
-

>  <cas>
149709-62-6

>  <name>
SACUBITRIL

>  <ID>
1789

>  <Smiles>
CCOC([C@H](C)C[C@@H](Cc(cc1)ccc1-c1ccccc1)NC(CCC([O-])=O)=O)=O

$$$$
_c001
Actelion Java MolfileCreator 2.0

  0  0  0  0  0  0              0 V3000
M  V30 BEGIN CTAB
M  V30 COUNTS 28 29 0 0 0
M  V30 BEGIN ATOM
M  V30 1 O 8.6602 -0.5 0.0 0
M  V30 2 C 7.7942 0.0 0.0 0
M  V30 3 O 7.7942 0.9999 0.0 0 CHG=-1
M  V30 4 C 6.9282 -0.5 0.0 0 CFG=1
M  V30 5 C 6.0621 0.0 0.0 0
M  V30 6 C 6.9282 -1.4999 0.0 0
M  V30 7 C 5.1961 -0.5 0.0 0 CFG=2
M  V30 8 N 4.3301 0.0 0.0 0
M  V30 9 C 5.1961 -1.5 0.0 0
M  V30 10 C 4.3301 1.0 0.0 0
M  V30 11 C 4.3301 -1.9999 0.0 0
M  V30 12 O 5.1961 1.5 0.0 0
M  V30 13 C 3.4641 1.5 0.0 0
M  V30 14 C 4.3301 -2.9999 0.0 0
M  V30 15 C 3.4641 -1.4999 0.0 0
M  V30 16 C 3.4641 2.5 0.0 0
M  V30 17 C 3.4641 -3.4999 0.0 0
M  V30 18 C 2.598 -1.9999 0.0 0
M  V30 19 C 2.598 3.0 0.0 0
M  V30 20 C 2.598 -2.9999 0.0 0
M  V30 21 O 1.732 2.5 0.0 0
M  V30 22 O 2.598 4.0 0.0 0 CHG=-1
M  V30 23 C 1.732 -3.4999 0.0 0
M  V30 24 C 1.732 -4.4999 0.0 0
M  V30 25 C 0.866 -2.9999 0.0 0
M  V30 26 C 0.866 -4.9999 0.0 0
M  V30 27 C 0.0 -3.4999 0.0 0
M  V30 28 C 0.0 -4.4999 0.0 0
M  V30 END ATOM
M  V30 BEGIN BOND
M  V30 1 2 1 2
M  V30 2 1 2 3
M  V30 3 1 4 2
M  V30 4 1 4 5
M  V30 5 1 4 6 CFG=3
M  V30 6 1 7 5
M  V30 7 1 7 8 CFG=1
M  V30 8 1 7 9
M  V30 9 1 8 10
M  V30 10 1 9 11
M  V30 11 2 10 12
M  V30 12 1 10 13
M  V30 13 2 11 14
M  V30 14 1 11 15
M  V30 15 1 13 16
M  V30 16 1 14 17
M  V30 17 2 15 18
M  V30 18 1 16 19
M  V30 19 2 17 20
M  V30 20 2 19 21
M  V30 21 1 19 22
M  V30 22 1 20 23
M  V30 23 2 23 24
M  V30 24 1 23 25
M  V30 25 1 24 26
M  V30 26 2 25 27
M  V30 27 2 26 28
M  V30 28 1 18 20
M  V30 29 1 27 28
M  V30 END BOND
M  V30 BEGIN COLLECTION
M  V30 MDLV30/STERAC1 ATOMS=(2 4 7)
M  V30 END COLLECTION
M  V30 END CTAB
M  END
>  <Molecule Name>
_c001

>  <status>
-

>  <cas>
149709-44-4

>  <name>
M SACUBITRIL

>  <ID>
1790

>  <Smiles>
C[C@H](C[C@@H](Cc(cc1)ccc1-c1ccccc1)NC(CCC([O-])=O)=O)C([O-])=O

$$$$
_c001
Actelion Java MolfileCreator 2.0

  0  0  0  0  0  0              0 V3000
M  V30 BEGIN CTAB
M  V30 COUNTS 24 27 0 0 0
M  V30 BEGIN ATOM
M  V30 1 O 4.5567 6.7008 0.0 0
M  V30 2 C 4.2476 5.7498 0.0 0
M  V30 3 C 4.9168 5.0066 0.0 0
M  V30 4 C 3.2695 5.5418 0.0 0
M  V30 5 C 4.6078 4.0556 0.0 0
M  V30 6 C 2.9605 4.5908 0.0 0
M  V30 7 C 3.6296 3.8476 0.0 0 CFG=1
M  V30 8 C 5.2769 3.3124 0.0 0
M  V30 9 C 3.3206 2.8966 0.0 0 CFG=1
M  V30 10 C 2.6515 3.6397 0.0 0
M  V30 11 C 4.9679 2.3614 0.0 0
M  V30 12 C 3.9897 2.1534 0.0 0 CFG=2
M  V30 13 C 2.3424 2.6887 0.0 0
M  V30 14 C 3.6807 1.2024 0.0 0 CFG=2
M  V30 15 C 2.0334 1.7376 0.0 0
M  V30 16 C 2.7026 0.9945 0.0 0 CFG=1
M  V30 17 C 4.1807 0.3364 0.0 0
M  V30 18 C 2.598 0.0 0.0 0 CFG=1
M  V30 19 C 1.7515 0.6855 0.0 0
M  V30 20 C 3.5116 -0.4067 0.0 0
M  V30 21 C 1.732 -0.5 0.0 0
M  V30 22 O 1.732 -1.5 0.0 0
M  V30 23 C 0.866 0.0 0.0 0
M  V30 24 O 0.0 -0.5 0.0 0
M  V30 END ATOM
M  V30 BEGIN BOND
M  V30 1 2 1 2
M  V30 2 1 2 3
M  V30 3 1 2 4
M  V30 4 2 3 5
M  V30 5 1 4 6
M  V30 6 1 7 5
M  V30 7 1 5 8
M  V30 8 1 9 7
M  V30 9 1 7 10 CFG=1
M  V30 10 1 8 11
M  V30 11 1 12 9
M  V30 12 1 9 13 CFG=1
M  V30 13 1 14 12
M  V30 14 1 13 15
M  V30 15 1 16 14
M  V30 16 1 14 17 CFG=1
M  V30 17 1 18 16
M  V30 18 1 16 19 CFG=1
M  V30 19 1 17 20
M  V30 20 1 18 21 CFG=1
M  V30 21 2 21 22
M  V30 22 1 21 23
M  V30 23 1 23 24
M  V30 24 1 6 7
M  V30 25 1 12 11 CFG=3
M  V30 26 1 15 16
M  V30 27 1 18 20
M  V30 END BOND
M  V30 BEGIN COLLECTION
M  V30 MDLV30/STERAC1 ATOMS=(6 7 9 12 14 16 18)
M  V30 END COLLECTION
M  V30 END CTAB
M  END
>  <Molecule Name>
_c001

>  <status>
-

>  <cas>
64-85-7

>  <name>
DESOXYCORTICOSTERONE

>  <ID>
1791

>  <Smiles>
C[C@@](CC1)([C@H](CC2)[C@@H](CC3)[C@@H]1[C@](C)(CC1)C3=CC1=O)[C@@H]2C(CO)=O

$$$$
O=C(O)CCSC[C@H]1O[C@@H]2O[C@@H]9[C@@H](CSCCC(=O)O)O[C@H](O[C@@H]8[C@@H](CSCC...
Actelion Java MolfileCreator 2.0

  0  0  0  0  0  0              0 V3000
M  V30 BEGIN CTAB
M  V30 COUNTS 128 136 0 0 0
M  V30 BEGIN ATOM
M  V30 1 S 3.4641 -0.5 0.0 0
M  V30 2 C 4.3301 0.0 0.0 0
M  V30 3 C 2.598 0.0 0.0 0
M  V30 4 C 5.1961 -0.5 0.0 0 CFG=2
M  V30 5 C 1.732 -0.4999 0.0 0
M  V30 6 O 5.1961 -1.5 0.0 0
M  V30 7 C 6.0621 0.0 0.0 0 CFG=2
M  V30 8 C 1.732 -1.4999 0.0 0
M  V30 9 C 6.0621 -2.0 0.0 0 CFG=1
M  V30 10 O 5.28 1.4273 0.0 0
M  V30 11 C 6.9282 -0.5 0.0 0 CFG=2
M  V30 12 O 2.598 -1.9999 0.0 0
M  V30 13 O 0.866 -1.9999 0.0 0 CHG=-1
M  V30 14 O 5.3586 -3.4495 0.0 0
M  V30 15 C 6.9282 -1.5 0.0 0 CFG=2
M  V30 16 C 4.8169 3.0174 0.0 0 CFG=2
M  V30 17 O 7.7942 0.0 0.0 0
M  V30 18 C 4.9062 -5.0041 0.0 0 CFG=2
M  V30 19 O 7.7942 -2.0 0.0 0
M  V30 20 O 3.8553 2.743 0.0 0
M  V30 21 C 5.0602 3.9874 0.0 0 CFG=1
M  V30 22 C 3.9306 -4.7847 0.0 0 CFG=1
M  V30 23 C 5.2041 -5.9587 0.0 0 CFG=1
M  V30 24 C 3.1369 3.4387 0.0 0 CFG=2
M  V30 25 O 6.0218 4.2617 0.0 0
M  V30 26 C 4.3417 4.683 0.0 0 CFG=1
M  V30 27 O 3.6327 -3.8301 0.0 0
M  V30 28 C 3.2528 -5.52 0.0 0 CFG=2
M  V30 29 O 4.5264 -6.6939 0.0 0
M  V30 30 C 6.1798 -6.178 0.0 0
M  V30 31 C 3.3801 4.4086 0.0 0 CFG=1
M  V30 32 C 2.1753 3.1643 0.0 0
M  V30 33 O 4.585 5.653 0.0 0
M  V30 34 O 2.2772 -5.3007 0.0 0
M  V30 35 C 3.5507 -6.4746 0.0 0 CFG=1
M  V30 36 S 6.8576 -5.4427 0.0 0
M  V30 37 O 1.7759 4.8202 0.0 0
M  V30 38 S 1.9321 2.1943 0.0 0
M  V30 39 O 1.9033 -6.8095 0.0 0
M  V30 40 C 7.8332 -5.662 0.0 0
M  V30 41 C 0.3241 5.6171 0.0 0 CFG=2
M  V30 42 C 0.9704 1.92 0.0 0
M  V30 43 C 0.5404 -7.7968 0.0 0 CFG=2
M  V30 44 C 8.511 -4.9268 0.0 0
M  V30 45 O -0.1617 4.7432 0.0 0
M  V30 46 C -0.1896 6.475 0.0 0 CFG=1
M  V30 47 C 0.7272 0.95 0.0 0
M  V30 48 C 0.0265 -6.939 0.0 0 CFG=1
M  V30 49 C 0.0544 -8.6708 0.0 0 CFG=1
M  V30 50 C 9.4866 -5.1461 0.0 0
M  V30 51 C -1.1616 4.727 0.0 0 CFG=2
M  V30 52 O 0.2962 7.349 0.0 0
M  V30 53 C -1.1895 6.4589 0.0 0 CFG=1
M  V30 54 C -0.2343 0.6757 0.0 0
M  V30 55 O 0.5125 -6.065 0.0 0
M  V30 56 C -0.9733 -6.9551 0.0 0 CFG=2
M  V30 57 O -0.9454 -8.6869 0.0 0
M  V30 58 C 0.5683 -9.5287 0.0 0
M  V30 59 O 9.7845 -6.1007 0.0 0
M  V30 60 O 10.1644 -4.4108 0.0 0 CHG=-1
M  V30 61 C -1.6755 5.5849 0.0 0 CFG=1
M  V30 62 C -1.6476 3.8531 0.0 0
M  V30 63 O -1.7034 7.3167 0.0 0
M  V30 64 O -0.9527 1.3713 0.0 0
M  V30 65 O -0.4775 -0.2942 0.0 0 CHG=-1
M  V30 66 O -1.4872 -6.0972 0.0 0
M  V30 67 C -1.4593 -7.8291 0.0 0 CFG=1
M  V30 68 S 1.5682 -9.5125 0.0 0
M  V30 69 O -3.1008 4.7416 0.0 0
M  V30 70 S -1.1337 2.9952 0.0 0
M  V30 71 O -2.9111 -7.0321 0.0 0
M  V30 72 C 2.082 -10.3704 0.0 0
M  V30 73 C -4.6909 4.2785 0.0 0 CFG=2
M  V30 74 C -1.6197 2.1212 0.0 0
M  V30 75 C -4.5152 -6.6206 0.0 0 CFG=2
M  V30 76 C 3.0819 -10.3543 0.0 0
M  V30 77 O -4.4217 3.3237 0.0 0
M  V30 78 C -5.6609 4.5218 0.0 0 CFG=1
M  V30 79 C -2.6195 2.1051 0.0 0
M  V30 80 C -4.272 -5.6506 0.0 0 CFG=1
M  V30 81 C -5.4769 -6.8949 0.0 0 CFG=1
M  V30 82 C 3.5958 -11.2121 0.0 0
M  V30 83 C -5.1122 2.5985 0.0 0 CFG=2
M  V30 84 O -5.9352 5.4834 0.0 0
M  V30 85 C -6.3565 3.8033 0.0 0 CFG=1
M  V30 86 C -3.1334 2.963 0.0 0
M  V30 87 O -3.3104 -5.3762 0.0 0
M  V30 88 C -4.9904 -4.955 0.0 0 CFG=2
M  V30 89 O -6.1953 -6.1993 0.0 0
M  V30 90 C -5.7201 -7.8649 0.0 0
M  V30 91 O 3.1098 -12.0861 0.0 0
M  V30 92 O 4.5957 -11.196 0.0 0 CHG=-1
M  V30 93 C -6.0822 2.8417 0.0 0 CFG=1
M  V30 94 C -4.8378 1.6369 0.0 0
M  V30 95 O -7.3265 4.0466 0.0 0
M  V30 96 O -2.6474 3.837 0.0 0
M  V30 97 O -4.123 2.9334 0.0 0 CHG=-1
M  V30 98 O -4.7472 -3.985 0.0 0
M  V30 99 C -5.9521 -5.2293 0.0 0 CFG=1
M  V30 100 S -5.0017 -8.5605 0.0 0
M  V30 101 O -6.4937 1.2375 0.0 0
M  V30 102 S -5.5335 0.9185 0.0 0
M  V30 103 O -6.4151 -3.6392 0.0 0
M  V30 104 C -5.2449 -9.5305 0.0 0
M  V30 105 C -7.2907 -0.2142 0.0 0 CFG=2
M  V30 106 C -5.2591 -0.0431 0.0 0
M  V30 107 C -7.2584 -2.2139 0.0 0 CFG=2
M  V30 108 C -4.5265 -10.2261 0.0 0
M  V30 109 O -6.4167 -0.7001 0.0 0
M  V30 110 C -8.1485 -0.728 0.0 0 CFG=2
M  V30 111 C -4.2891 -0.2863 0.0 0
M  V30 112 C -8.1324 -1.7279 0.0 0 CFG=2
M  V30 113 C -6.4006 -1.7 0.0 0 CFG=1
M  V30 114 C -4.7697 -11.1961 0.0 0
M  V30 115 O -9.0225 -0.2421 0.0 0
M  V30 116 C -3.5935 0.432 0.0 0
M  V30 117 O -8.9902 -2.2418 0.0 0
M  V30 118 C -5.5266 -2.186 0.0 0
M  V30 119 O -5.7313 -11.4704 0.0 0
M  V30 120 O -4.0513 -11.8917 0.0 0 CHG=-1
M  V30 121 O -3.8679 1.3936 0.0 0
M  V30 122 O -2.6235 0.1888 0.0 0 CHG=-1
M  V30 123 S -4.6687 -1.6721 0.0 0
M  V30 124 C -3.7948 -2.1581 0.0 0
M  V30 125 C -2.9369 -1.6442 0.0 0
M  V30 126 C -2.0629 -2.1301 0.0 0
M  V30 127 O -2.0468 -3.13 0.0 0
M  V30 128 O -1.2051 -1.6163 0.0 0 CHG=-1
M  V30 END ATOM
M  V30 BEGIN BOND
M  V30 1 1 1 2
M  V30 2 1 1 3
M  V30 3 1 4 2 CFG=1
M  V30 4 1 3 5
M  V30 5 1 4 6
M  V30 6 1 7 4
M  V30 7 1 5 8
M  V30 8 1 9 6 CFG=3
M  V30 9 1 7 10 CFG=3
M  V30 10 1 11 7
M  V30 11 2 8 12
M  V30 12 1 8 13
M  V30 13 1 9 14
M  V30 14 1 15 9
M  V30 15 1 16 10 CFG=3
M  V30 16 1 11 17 CFG=1
M  V30 17 1 18 14 CFG=1
M  V30 18 1 15 19 CFG=3
M  V30 19 1 16 20
M  V30 20 1 21 16
M  V30 21 1 22 18
M  V30 22 1 23 18
M  V30 23 1 24 20
M  V30 24 1 21 25 CFG=3
M  V30 25 1 26 21
M  V30 26 1 22 27 CFG=3
M  V30 27 1 28 22
M  V30 28 1 23 29
M  V30 29 1 23 30 CFG=3
M  V30 30 1 31 24
M  V30 31 1 24 32 CFG=1
M  V30 32 1 26 33 CFG=1
M  V30 33 1 28 34 CFG=1
M  V30 34 1 35 28
M  V30 35 1 30 36
M  V30 36 1 31 37 CFG=3
M  V30 37 1 32 38
M  V30 38 1 35 39 CFG=1
M  V30 39 1 36 40
M  V30 40 1 41 37 CFG=3
M  V30 41 1 38 42
M  V30 42 1 43 39 CFG=1
M  V30 43 1 40 44
M  V30 44 1 41 45
M  V30 45 1 46 41
M  V30 46 1 42 47
M  V30 47 1 48 43
M  V30 48 1 49 43
M  V30 49 1 44 50
M  V30 50 1 51 45
M  V30 51 1 46 52 CFG=3
M  V30 52 1 53 46
M  V30 53 1 47 54
M  V30 54 1 48 55 CFG=3
M  V30 55 1 56 48
M  V30 56 1 49 57
M  V30 57 1 49 58 CFG=3
M  V30 58 2 50 59
M  V30 59 1 50 60
M  V30 60 1 61 51
M  V30 61 1 51 62 CFG=1
M  V30 62 1 53 63 CFG=1
M  V30 63 2 54 64
M  V30 64 1 54 65
M  V30 65 1 56 66 CFG=1
M  V30 66 1 67 56
M  V30 67 1 58 68
M  V30 68 1 61 69 CFG=3
M  V30 69 1 62 70
M  V30 70 1 67 71 CFG=1
M  V30 71 1 68 72
M  V30 72 1 73 69 CFG=3
M  V30 73 1 70 74
M  V30 74 1 75 71 CFG=1
M  V30 75 1 72 76
M  V30 76 1 73 77
M  V30 77 1 78 73
M  V30 78 1 74 79
M  V30 79 1 80 75
M  V30 80 1 81 75
M  V30 81 1 76 82
M  V30 82 1 83 77
M  V30 83 1 78 84 CFG=3
M  V30 84 1 85 78
M  V30 85 1 79 86
M  V30 86 1 80 87 CFG=3
M  V30 87 1 88 80
M  V30 88 1 81 89
M  V30 89 1 81 90 CFG=3
M  V30 90 2 82 91
M  V30 91 1 82 92
M  V30 92 1 93 83
M  V30 93 1 83 94 CFG=1
M  V30 94 1 85 95 CFG=1
M  V30 95 2 86 96
M  V30 96 1 86 97
M  V30 97 1 88 98 CFG=1
M  V30 98 1 99 88
M  V30 99 1 90 100
M  V30 100 1 93 101 CFG=3
M  V30 101 1 94 102
M  V30 102 1 99 103 CFG=1
M  V30 103 1 100 104
M  V30 104 1 105 101 CFG=3
M  V30 105 1 102 106
M  V30 106 1 107 103 CFG=3
M  V30 107 1 104 108
M  V30 108 1 105 109
M  V30 109 1 110 105
M  V30 110 1 106 111
M  V30 111 1 112 107
M  V30 112 1 113 107
M  V30 113 1 108 114
M  V30 114 1 110 115 CFG=3
M  V30 115 1 111 116
M  V30 116 1 112 117 CFG=1
M  V30 117 1 113 118 CFG=1
M  V30 118 2 114 119
M  V30 119 1 114 120
M  V30 120 2 116 121
M  V30 121 1 116 122
M  V30 122 1 118 123
M  V30 123 1 123 124
M  V30 124 1 124 125
M  V30 125 1 125 126
M  V30 126 2 126 127
M  V30 127 1 126 128
M  V30 128 1 11 15
M  V30 129 1 26 31
M  V30 130 1 29 35
M  V30 131 1 53 61
M  V30 132 1 57 67
M  V30 133 1 85 93
M  V30 134 1 89 99
M  V30 135 1 109 113
M  V30 136 1 110 112
M  V30 END BOND
M  V30 BEGIN COLLECTION
M  V30 MDLV30/STERAC1 ATOMS=(40 4 7 9 11 15 16 18 21 22 23 24 26 28 31 35 41 43 46 48 49 51 53 56 61 67 73 75 78 80 81 83 85 88 93 99 105 107 110 112 113)
M  V30 END COLLECTION
M  V30 END CTAB
M  END
>  <Molecule Name>
O=C(O)CCSC[C@H]1O[C@@H]2O[C@@H]9[C@@H](CSCCC(=O)O)O[C@H](O[C@@H]8[C@@H](CSCC...

>  <status>
-

>  <cas>
343306-71-8

>  <name>
SUGAMMADEX

>  <ID>
1792

>  <Smiles>
[O-]C(CCSC[C@@H]([C@@H]([C@H]([C@@H]1O)O)O[C@@H]([C@H]([C@@H]2O)O)O[C@@H](CSCCC([O-])=O)[C@@H]2O[C@@H]([C@H]([C@@H]2O)O)O[C@@H](CSCCC([O-])=O)[C@@H]2O[C@@H]([C@H]([C@@H]2O)O)O[C@@H](CSCCC([O-])=O)[C@@H]2O[C@@H]([C@H]([C@@H]2O)O)O[C@@H](CSCCC([O-])=O)[C@@H]2O[C@@H]([C@H]([C@@H]2O)O)O[C@@H](CSCCC([O-])=O)[C@@H]2O[C@@H]([C@H]([C@@H]2O)O)O[C@@H](CSCCC([O-])=O)[C@@H]2O[C@@H]([C@H]2O)O[C@H]3CSCCC([O-])=O)O[C@H]1O[C@@H]3[C@H]2O)=O

$$$$
_c001
Actelion Java MolfileCreator 2.0

  0  0  0  0  0  0              0 V3000
M  V30 BEGIN CTAB
M  V30 COUNTS 28 31 0 0 0
M  V30 BEGIN ATOM
M  V30 1 F 5.0621 3.9999 0.0 0
M  V30 2 C 6.0621 4.0 0.0 0
M  V30 3 F 6.0621 5.0 0.0 0
M  V30 4 F 7.0621 4.0 0.0 0
M  V30 5 C 6.0621 3.0 0.0 0
M  V30 6 C 5.1961 2.5 0.0 0
M  V30 7 C 6.9282 2.5 0.0 0
M  V30 8 C 5.1961 1.5 0.0 0
M  V30 9 C 6.9282 1.5 0.0 0
M  V30 10 N 4.3301 1.0 0.0 0
M  V30 11 C 6.0621 1.0 0.0 0
M  V30 12 C 3.4641 1.5 0.0 0
M  V30 13 C 4.3301 0.0 0.0 0
M  V30 14 C 2.598 0.9999 0.0 0
M  V30 15 C 3.4641 -0.4999 0.0 0
M  V30 16 N 2.598 0.0 0.0 0
M  V30 17 C 1.732 -0.5 0.0 0
M  V30 18 C 0.866 0.0 0.0 0
M  V30 19 N 0.0 -0.5 0.0 0
M  V30 20 C -0.9135 -0.0932 0.0 0
M  V30 21 C -0.1045 -1.4945 0.0 0
M  V30 22 O -1.1214 0.8848 0.0 0
M  V30 23 N -1.5826 -0.8364 0.0 0
M  V30 24 C -1.0826 -1.7024 0.0 0
M  V30 25 C 0.5646 -2.2376 0.0 0
M  V30 26 C -1.3916 -2.6534 0.0 0
M  V30 27 C 0.2555 -3.1887 0.0 0
M  V30 28 C -0.7225 -3.3966 0.0 0
M  V30 END ATOM
M  V30 BEGIN BOND
M  V30 1 1 1 2
M  V30 2 1 2 3
M  V30 3 1 2 4
M  V30 4 1 2 5
M  V30 5 2 5 6
M  V30 6 1 5 7
M  V30 7 1 6 8
M  V30 8 2 7 9
M  V30 9 1 8 10
M  V30 10 2 8 11
M  V30 11 1 10 12
M  V30 12 1 10 13
M  V30 13 1 12 14
M  V30 14 1 13 15
M  V30 15 1 14 16
M  V30 16 1 16 17
M  V30 17 1 17 18
M  V30 18 1 18 19
M  V30 19 1 19 20
M  V30 20 1 19 21
M  V30 21 2 20 22
M  V30 22 1 20 23
M  V30 23 2 21 24
M  V30 24 1 21 25
M  V30 25 1 24 26
M  V30 26 2 25 27
M  V30 27 2 26 28
M  V30 28 1 9 11
M  V30 29 1 15 16
M  V30 30 1 23 24
M  V30 31 1 27 28
M  V30 END BOND
M  V30 END CTAB
M  END
>  <Molecule Name>
_c001

>  <status>
-

>  <cas>
167933-07-5

>  <name>
FLIBANSERIN

>  <ID>
1793

>  <Smiles>
O=C1N(CCN(CC2)CCN2c2cccc(C(F)(F)F)c2)c(cccc2)c2N1

$$$$
_c001
Actelion Java MolfileCreator 2.0

  0  0  0  0  0  0              0 V3000
M  V30 BEGIN CTAB
M  V30 COUNTS 28 30 0 0 0
M  V30 BEGIN ATOM
M  V30 1 Cl 8.6602 -6.5 0.0 0
M  V30 2 C 9.5262 -6.0 0.0 0
M  V30 3 C 10.3923 -6.5 0.0 0
M  V30 4 C 9.5262 -5.0 0.0 0
M  V30 5 Cl 10.3923 -7.5 0.0 0
M  V30 6 C 11.2583 -6.0 0.0 0
M  V30 7 N 8.6602 -4.5 0.0 0
M  V30 8 C 10.3923 -4.5 0.0 0
M  V30 9 C 11.2583 -5.0 0.0 0
M  V30 10 C 8.6602 -3.5 0.0 0
M  V30 11 C 7.7942 -5.0 0.0 0
M  V30 12 C 7.7942 -3.0 0.0 0
M  V30 13 C 6.9282 -4.5 0.0 0
M  V30 14 N 6.9282 -3.5 0.0 0
M  V30 15 C 6.0621 -3.0 0.0 0
M  V30 16 C 6.0621 -1.9999 0.0 0
M  V30 17 C 5.1961 -1.4999 0.0 0 CFG=1
M  V30 18 C 5.1961 -0.5 0.0 0
M  V30 19 C 4.3301 -1.9999 0.0 0
M  V30 20 C 4.3301 0.0 0.0 0
M  V30 21 C 3.4641 -1.5 0.0 0
M  V30 22 C 3.4641 -0.5 0.0 0 CFG=1
M  V30 23 N 2.598 0.0 0.0 0
M  V30 24 C 1.732 -0.5 0.0 0
M  V30 25 O 1.732 -1.5 0.0 0
M  V30 26 N 0.866 0.0 0.0 0
M  V30 27 C 0.866 1.0 0.0 0
M  V30 28 C 0.0 -0.5 0.0 0
M  V30 END ATOM
M  V30 BEGIN BOND
M  V30 1 1 1 2
M  V30 2 2 2 3
M  V30 3 1 2 4
M  V30 4 1 3 5
M  V30 5 1 3 6
M  V30 6 1 4 7
M  V30 7 2 4 8
M  V30 8 2 6 9
M  V30 9 1 7 10
M  V30 10 1 7 11
M  V30 11 1 10 12
M  V30 12 1 11 13
M  V30 13 1 12 14
M  V30 14 1 14 15
M  V30 15 1 15 16
M  V30 16 1 17 16 CFG=3
M  V30 17 1 17 18
M  V30 18 1 17 19
M  V30 19 1 18 20
M  V30 20 1 19 21
M  V30 21 1 22 20
M  V30 22 1 22 23 CFG=1
M  V30 23 1 23 24
M  V30 24 2 24 25
M  V30 25 1 24 26
M  V30 26 1 26 27
M  V30 27 1 26 28
M  V30 28 1 8 9
M  V30 29 1 13 14
M  V30 30 1 21 22
M  V30 END BOND
M  V30 BEGIN COLLECTION
M  V30 MDLV30/STEABS ATOMS=(2 17 22)
M  V30 END COLLECTION
M  V30 END CTAB
M  END
>  <Molecule Name>
_c001

>  <status>
-

>  <cas>
839712-12-8

>  <name>
CARIPRAZINE

>  <ID>
1794

>  <Smiles>
CN(C)C(N[C@H]1CC[C@H](CCN(CC2)CCN2c2cccc(Cl)c2Cl)CC1)=O

$$$$
_c001
Actelion Java MolfileCreator 2.0

  0  0  0  0  0  0              0 V3000
M  V30 BEGIN CTAB
M  V30 COUNTS 27 29 0 0 0
M  V30 BEGIN ATOM
M  V30 1 Cl 8.6602 -6.5 0.0 0
M  V30 2 C 9.5262 -6.0 0.0 0
M  V30 3 C 10.3923 -6.5 0.0 0
M  V30 4 C 9.5262 -5.0 0.0 0
M  V30 5 Cl 10.3923 -7.5 0.0 0
M  V30 6 C 11.2583 -6.0 0.0 0
M  V30 7 N 8.6602 -4.5 0.0 0
M  V30 8 C 10.3923 -4.5 0.0 0
M  V30 9 C 11.2583 -5.0 0.0 0
M  V30 10 C 8.6602 -3.5 0.0 0
M  V30 11 C 7.7942 -5.0 0.0 0
M  V30 12 C 7.7942 -3.0 0.0 0
M  V30 13 C 6.9282 -4.5 0.0 0
M  V30 14 N 6.9282 -3.5 0.0 0
M  V30 15 C 6.0621 -3.0 0.0 0
M  V30 16 C 6.0621 -1.9999 0.0 0
M  V30 17 C 5.1961 -1.4999 0.0 0 CFG=1
M  V30 18 C 5.1961 -0.5 0.0 0
M  V30 19 C 4.3301 -1.9999 0.0 0
M  V30 20 C 4.3301 0.0 0.0 0
M  V30 21 C 3.4641 -1.5 0.0 0
M  V30 22 C 3.4641 -0.5 0.0 0 CFG=1
M  V30 23 N 2.598 0.0 0.0 0
M  V30 24 C 1.732 -0.5 0.0 0
M  V30 25 O 1.732 -1.5 0.0 0
M  V30 26 N 0.866 0.0 0.0 0
M  V30 27 C 0.0 -0.5 0.0 0
M  V30 END ATOM
M  V30 BEGIN BOND
M  V30 1 1 1 2
M  V30 2 2 2 3
M  V30 3 1 2 4
M  V30 4 1 3 5
M  V30 5 1 3 6
M  V30 6 1 4 7
M  V30 7 2 4 8
M  V30 8 2 6 9
M  V30 9 1 7 10
M  V30 10 1 7 11
M  V30 11 1 10 12
M  V30 12 1 11 13
M  V30 13 1 12 14
M  V30 14 1 14 15
M  V30 15 1 15 16
M  V30 16 1 17 16 CFG=3
M  V30 17 1 17 18
M  V30 18 1 17 19
M  V30 19 1 18 20
M  V30 20 1 19 21
M  V30 21 1 22 20
M  V30 22 1 22 23 CFG=1
M  V30 23 1 23 24
M  V30 24 2 24 25
M  V30 25 1 24 26
M  V30 26 1 26 27
M  V30 27 1 8 9
M  V30 28 1 13 14
M  V30 29 1 21 22
M  V30 END BOND
M  V30 BEGIN COLLECTION
M  V30 MDLV30/STEABS ATOMS=(2 17 22)
M  V30 END COLLECTION
M  V30 END CTAB
M  END
>  <Molecule Name>
_c001

>  <status>
-

>  <cas>
839712-15-1

>  <name>
M CARIPRAZINE

>  <ID>
1795

>  <Smiles>
CNC(N[C@H]1CC[C@H](CCN(CC2)CCN2c2cccc(Cl)c2Cl)CC1)=O

$$$$
_c001
Actelion Java MolfileCreator 2.0

  0  0  0  0  0  0              0 V3000
M  V30 BEGIN CTAB
M  V30 COUNTS 26 28 0 0 0
M  V30 BEGIN ATOM
M  V30 1 Cl 6.0621 0.0 0.0 0
M  V30 2 C 6.0621 1.0 0.0 0
M  V30 3 C 6.9282 1.5 0.0 0
M  V30 4 C 5.1961 1.5 0.0 0
M  V30 5 Cl 7.7942 1.0 0.0 0
M  V30 6 C 6.9282 2.5 0.0 0
M  V30 7 N 4.3301 1.0 0.0 0
M  V30 8 C 5.1961 2.5 0.0 0
M  V30 9 C 6.0621 3.0 0.0 0
M  V30 10 C 3.4641 1.5 0.0 0
M  V30 11 C 4.3301 0.0 0.0 0
M  V30 12 C 2.598 0.9999 0.0 0
M  V30 13 C 3.4641 -0.4999 0.0 0
M  V30 14 N 2.598 0.0 0.0 0
M  V30 15 C 1.732 -0.5 0.0 0
M  V30 16 C 0.866 0.0 0.0 0
M  V30 17 C 0.0 -0.5 0.0 0 CFG=1
M  V30 18 C -0.866 0.0 0.0 0
M  V30 19 C 0.0 -1.4999 0.0 0
M  V30 20 C -1.732 -0.4999 0.0 0
M  V30 21 C -0.866 -1.9999 0.0 0
M  V30 22 C -1.732 -1.4999 0.0 0 CFG=1
M  V30 23 N -2.598 -1.9999 0.0 0
M  V30 24 C -3.4641 -1.4999 0.0 0
M  V30 25 O -3.4641 -0.4999 0.0 0
M  V30 26 N -4.3301 -1.9999 0.0 0
M  V30 END ATOM
M  V30 BEGIN BOND
M  V30 1 1 1 2
M  V30 2 2 2 3
M  V30 3 1 2 4
M  V30 4 1 3 5
M  V30 5 1 3 6
M  V30 6 1 4 7
M  V30 7 2 4 8
M  V30 8 2 6 9
M  V30 9 1 7 10
M  V30 10 1 7 11
M  V30 11 1 10 12
M  V30 12 1 11 13
M  V30 13 1 12 14
M  V30 14 1 14 15
M  V30 15 1 15 16
M  V30 16 1 17 16 CFG=3
M  V30 17 1 17 18
M  V30 18 1 17 19
M  V30 19 1 18 20
M  V30 20 1 19 21
M  V30 21 1 22 20
M  V30 22 1 22 23 CFG=1
M  V30 23 1 23 24
M  V30 24 2 24 25
M  V30 25 1 24 26
M  V30 26 1 8 9
M  V30 27 1 13 14
M  V30 28 1 21 22
M  V30 END BOND
M  V30 BEGIN COLLECTION
M  V30 MDLV30/STEABS ATOMS=(2 17 22)
M  V30 END COLLECTION
M  V30 END CTAB
M  END
>  <Molecule Name>
_c001

>  <status>
-

>  <cas>
839712-25-3

>  <name>
M CARIPRAZINE

>  <ID>
1796

>  <Smiles>
NC(N[C@H]1CC[C@H](CCN(CC2)CCN2c2cccc(Cl)c2Cl)CC1)=O

$$$$
_c001
Actelion Java MolfileCreator 2.0

  0  0  0  0  0  0              0 V3000
M  V30 BEGIN CTAB
M  V30 COUNTS 20 22 0 0 0
M  V30 BEGIN ATOM
M  V30 1 S 4.3301 0.0 0.0 0 CHG=1
M  V30 2 C 3.4641 -0.5 0.0 0
M  V30 3 C 5.1961 -0.5 0.0 0
M  V30 4 C 3.4641 -1.5 0.0 0
M  V30 5 C 2.598 0.0 0.0 0
M  V30 6 C 5.1961 -1.5 0.0 0
M  V30 7 C 6.0621 0.0 0.0 0
M  V30 8 N 4.3301 -2.0 0.0 0
M  V30 9 C 2.598 -2.0 0.0 0
M  V30 10 C 1.732 -0.5 0.0 0
M  V30 11 C 6.0621 -1.9999 0.0 0
M  V30 12 C 6.9282 -0.5 0.0 0
M  V30 13 C 1.732 -1.4999 0.0 0
M  V30 14 N 0.866 0.0 0.0 0
M  V30 15 C 6.9282 -1.5 0.0 0
M  V30 16 N 7.7942 0.0 0.0 0
M  V30 17 C 0.866 1.0 0.0 0
M  V30 18 C 0.0 -0.5 0.0 0
M  V30 19 C 8.6602 -0.4999 0.0 0
M  V30 20 C 7.7942 1.0 0.0 0
M  V30 END ATOM
M  V30 BEGIN BOND
M  V30 1 1 1 2
M  V30 2 2 1 3
M  V30 3 1 2 4
M  V30 4 2 2 5
M  V30 5 1 3 6
M  V30 6 1 3 7
M  V30 7 1 4 8
M  V30 8 2 4 9
M  V30 9 1 5 10
M  V30 10 1 6 11
M  V30 11 2 7 12
M  V30 12 1 9 13
M  V30 13 1 10 14
M  V30 14 2 11 15
M  V30 15 1 12 16
M  V30 16 1 14 17
M  V30 17 1 14 18
M  V30 18 1 16 19
M  V30 19 1 16 20
M  V30 20 2 6 8
M  V30 21 2 10 13
M  V30 22 1 12 15
M  V30 END BOND
M  V30 END CTAB
M  END
>  <Molecule Name>
_c001

>  <status>
-

>  <cas>
61-73-4

>  <name>
METHYLENE BLUE

>  <ID>
1797

>  <Smiles>
CN(C)c1cc2[s+]c3cc(N(C)C)ccc3nc2cc1

$$$$
_c001
Actelion Java MolfileCreator 2.0

  0  0  0  0  0  0              0 V3000
M  V30 BEGIN CTAB
M  V30 COUNTS 20 22 0 0 0
M  V30 BEGIN ATOM
M  V30 1 S 4.3301 0.0 0.0 0
M  V30 2 C 3.4641 -0.5 0.0 0
M  V30 3 C 5.1961 -0.5 0.0 0
M  V30 4 C 3.4641 -1.5 0.0 0
M  V30 5 C 2.598 0.0 0.0 0
M  V30 6 C 5.1961 -1.5 0.0 0
M  V30 7 C 6.0621 0.0 0.0 0
M  V30 8 N 4.3301 -2.0 0.0 0
M  V30 9 C 2.598 -2.0 0.0 0
M  V30 10 C 1.732 -0.5 0.0 0
M  V30 11 C 6.0621 -1.9999 0.0 0
M  V30 12 C 6.9282 -0.5 0.0 0
M  V30 13 C 1.732 -1.4999 0.0 0
M  V30 14 N 0.866 0.0 0.0 0
M  V30 15 C 6.9282 -1.5 0.0 0
M  V30 16 N 7.7942 0.0 0.0 0
M  V30 17 C 0.866 1.0 0.0 0
M  V30 18 C 0.0 -0.5 0.0 0
M  V30 19 C 8.6602 -0.4999 0.0 0
M  V30 20 C 7.7942 1.0 0.0 0
M  V30 END ATOM
M  V30 BEGIN BOND
M  V30 1 1 1 2
M  V30 2 1 1 3
M  V30 3 2 2 4
M  V30 4 1 2 5
M  V30 5 2 3 6
M  V30 6 1 3 7
M  V30 7 1 4 8
M  V30 8 1 4 9
M  V30 9 2 5 10
M  V30 10 1 6 11
M  V30 11 2 7 12
M  V30 12 2 9 13
M  V30 13 1 10 14
M  V30 14 2 11 15
M  V30 15 1 12 16
M  V30 16 1 14 17
M  V30 17 1 14 18
M  V30 18 1 16 19
M  V30 19 1 16 20
M  V30 20 1 6 8
M  V30 21 1 10 13
M  V30 22 1 12 15
M  V30 END BOND
M  V30 END CTAB
M  END
>  <Molecule Name>
_c001

>  <status>
-

>  <cas>
613-11-6

>  <name>
LEUCOMETHYLENE BLUE

>  <ID>
1798

>  <Smiles>
CN(C)c(cc1)cc2c1Nc(ccc(N(C)C)c1)c1S2

$$$$
_c001
Actelion Java MolfileCreator 2.0

  0  0  0  0  0  0              0 V3000
M  V30 BEGIN CTAB
M  V30 COUNTS 15 15 0 0 0
M  V30 BEGIN ATOM
M  V30 1 O 3.4921 -1.7787 0.0 0
M  V30 2 C 2.541 -2.0877 0.0 0
M  V30 3 N 1.732 -1.5 0.0 0
M  V30 4 C 2.232 -3.0388 0.0 0
M  V30 5 C 1.732 -0.5 0.0 0 CFG=1
M  V30 6 C 0.923 -2.0877 0.0 0
M  V30 7 C 1.232 -3.0388 0.0 0 CFG=1
M  V30 8 C 2.598 0.0 0.0 0
M  V30 9 C 0.866 0.0 0.0 0
M  V30 10 C 0.6442 -3.8478 0.0 0
M  V30 11 O 3.4641 -0.5 0.0 0
M  V30 12 N 2.598 1.0 0.0 0
M  V30 13 C 0.0 -0.5 0.0 0
M  V30 14 C -0.3502 -3.7433 0.0 0
M  V30 15 C -0.938 -4.5523 0.0 0
M  V30 END ATOM
M  V30 BEGIN BOND
M  V30 1 2 1 2
M  V30 2 1 2 3
M  V30 3 1 2 4
M  V30 4 1 5 3 CFG=3
M  V30 5 1 3 6
M  V30 6 1 7 4
M  V30 7 1 5 8
M  V30 8 1 5 9
M  V30 9 1 7 10 CFG=3
M  V30 10 2 8 11
M  V30 11 1 8 12
M  V30 12 1 9 13
M  V30 13 1 10 14
M  V30 14 1 14 15
M  V30 15 1 6 7
M  V30 END BOND
M  V30 BEGIN COLLECTION
M  V30 MDLV30/STERAC1 ATOMS=(2 5 7)
M  V30 END COLLECTION
M  V30 END CTAB
M  END
>  <Molecule Name>
_c001

>  <status>
-

>  <cas>
357336-20-0

>  <name>
BRIVARACETAM

>  <ID>
1799

>  <Smiles>
CCC[C@@H](C1)CN([C@H](CC)C(N)=O)C1=O

$$$$
_c001
Actelion Java MolfileCreator 2.0

  0  0  0  0  0  0              0 V3000
M  V30 BEGIN CTAB
M  V30 COUNTS 30 33 0 0 0
M  V30 BEGIN ATOM
M  V30 1 I 1.299 5.9999 0.0 0
M  V30 2 C 1.299 4.5 0.0 0
M  V30 3 C 2.598 3.7499 0.0 0
M  V30 4 C 0.0 3.75 0.0 0
M  V30 5 C 2.598 2.2499 0.0 0
M  V30 6 C 0.0 2.25 0.0 0
M  V30 7 F 3.8971 1.4999 0.0 0
M  V30 8 C 1.299 1.5 0.0 0
M  V30 9 N 1.299 0.0 0.0 0
M  V30 10 C 0.0 -0.75 0.0 0
M  V30 11 C -1.299 0.0 0.0 0
M  V30 12 C 0.0 -2.2499 0.0 0
M  V30 13 F -1.299 1.5 0.0 0
M  V30 14 C -2.598 -0.7499 0.0 0
M  V30 15 C 1.299 -2.9999 0.0 0
M  V30 16 C -1.299 -2.9999 0.0 0
M  V30 17 F -3.8971 0.0 0.0 0
M  V30 18 C -2.598 -2.2499 0.0 0
M  V30 19 O 1.299 -4.5 0.0 0
M  V30 20 N 2.598 -2.2499 0.0 0
M  V30 21 C 4.0469 -2.6382 0.0 0
M  V30 22 C 2.9863 -0.8011 0.0 0
M  V30 23 C 4.4351 -1.1893 0.0 0
M  V30 24 O 5.7342 -0.4393 0.0 0
M  V30 25 C 5.6252 -2.1024 0.0 0 CFG=1
M  V30 26 N 5.4294 -3.5896 0.0 0
M  V30 27 C 7.011 -1.5284 0.0 0
M  V30 28 C 6.6194 -4.5027 0.0 0
M  V30 29 C 8.201 -2.4415 0.0 0
M  V30 30 C 8.0052 -3.9287 0.0 0
M  V30 END ATOM
M  V30 BEGIN BOND
M  V30 1 1 1 2
M  V30 2 2 2 3
M  V30 3 1 2 4
M  V30 4 1 3 5
M  V30 5 2 4 6
M  V30 6 1 5 7
M  V30 7 2 5 8
M  V30 8 1 8 9
M  V30 9 1 9 10
M  V30 10 2 10 11
M  V30 11 1 10 12
M  V30 12 1 11 13
M  V30 13 1 11 14
M  V30 14 1 12 15
M  V30 15 2 12 16
M  V30 16 1 14 17
M  V30 17 2 14 18
M  V30 18 2 15 19
M  V30 19 1 15 20
M  V30 20 1 20 21
M  V30 21 1 20 22
M  V30 22 1 21 23
M  V30 23 1 23 24
M  V30 24 1 25 23 CFG=3
M  V30 25 1 25 26
M  V30 26 1 25 27
M  V30 27 1 26 28
M  V30 28 1 27 29
M  V30 29 1 28 30
M  V30 30 1 6 8
M  V30 31 1 16 18
M  V30 32 1 22 23
M  V30 33 1 29 30
M  V30 END BOND
M  V30 BEGIN COLLECTION
M  V30 MDLV30/STERAC1 ATOMS=(1 25)
M  V30 END COLLECTION
M  V30 END CTAB
M  END
>  <Molecule Name>
_c001

>  <status>
-

>  <cas>
934660-93-2

>  <name>
COBIMETINIB

>  <ID>
1800

>  <Smiles>
OC(C1)(CN1C(c(c(Nc(ccc(I)c1)c1F)c1F)ccc1F)=O)C1NCCCC1

$$$$
_c001
Actelion Java MolfileCreator 2.0

  0  0  0  0  0  0              0 V3000
M  V30 BEGIN CTAB
M  V30 COUNTS 35 38 0 0 0
M  V30 BEGIN ATOM
M  V30 1 F 5.3301 -3.0 0.0 0
M  V30 2 C 4.3301 -2.9999 0.0 0
M  V30 3 F 4.3301 -3.9999 0.0 0
M  V30 4 F 3.3301 -2.9999 0.0 0
M  V30 5 C 4.3301 -1.9999 0.0 0
M  V30 6 C 5.1961 -1.5 0.0 0
M  V30 7 C 3.4641 -1.5 0.0 0
M  V30 8 C 5.1961 -0.5 0.0 0
M  V30 9 C 3.4641 -0.5 0.0 0
M  V30 10 C 4.3301 0.0 0.0 0
M  V30 11 C 6.0621 0.0 0.0 0
M  V30 12 C 2.598 0.0 0.0 0 CFG=2
M  V30 13 F 5.5621 0.866 0.0 0
M  V30 14 F 6.9282 0.4999 0.0 0
M  V30 15 F 6.5621 -0.866 0.0 0
M  V30 16 O 1.732 -0.5 0.0 0
M  V30 17 C 2.598 1.0 0.0 0
M  V30 18 C 0.866 0.0 0.0 0
M  V30 19 C 0.0 -0.5 0.0 0 CFG=1
M  V30 20 N 0.0 -1.4999 0.0 0
M  V30 21 C 0.0 0.5 0.0 0
M  V30 22 C -0.866 0.0 0.0 0
M  V30 23 C -0.866 -2.0 0.0 0
M  V30 24 C -0.866 0.9999 0.0 0
M  V30 25 C 0.866 1.0 0.0 0
M  V30 26 C -1.732 -0.5 0.0 0
M  V30 27 C -1.732 -1.5 0.0 0 CFG=1
M  V30 28 C -0.866 1.9999 0.0 0
M  V30 29 C 0.866 2.0 0.0 0
M  V30 30 N -1.8365 -2.4945 0.0 0
M  V30 31 C -2.6455 -1.0932 0.0 0
M  V30 32 C 0.0 2.4999 0.0 0
M  V30 33 C -2.8147 -2.7024 0.0 0
M  V30 34 C -3.3147 -1.8364 0.0 0
M  V30 35 O -3.2214 -3.6159 0.0 0
M  V30 END ATOM
M  V30 BEGIN BOND
M  V30 1 1 1 2
M  V30 2 1 2 3
M  V30 3 1 2 4
M  V30 4 1 2 5
M  V30 5 2 5 6
M  V30 6 1 5 7
M  V30 7 1 6 8
M  V30 8 2 7 9
M  V30 9 2 8 10
M  V30 10 1 8 11
M  V30 11 1 12 9
M  V30 12 1 11 13
M  V30 13 1 11 14
M  V30 14 1 11 15
M  V30 15 1 12 16 CFG=3
M  V30 16 1 12 17
M  V30 17 1 16 18
M  V30 18 1 19 18
M  V30 19 1 19 20
M  V30 20 1 19 21 CFG=1
M  V30 21 1 19 22
M  V30 22 1 20 23
M  V30 23 2 21 24
M  V30 24 1 21 25
M  V30 25 1 22 26
M  V30 26 1 27 23
M  V30 27 1 24 28
M  V30 28 2 25 29
M  V30 29 1 27 30 CFG=3
M  V30 30 1 27 31
M  V30 31 2 28 32
M  V30 32 1 30 33
M  V30 33 1 31 34
M  V30 34 2 33 35
M  V30 35 1 9 10
M  V30 36 1 26 27
M  V30 37 1 29 32
M  V30 38 1 33 34
M  V30 END BOND
M  V30 BEGIN COLLECTION
M  V30 MDLV30/STERAC1 ATOMS=(3 12 19 27)
M  V30 END COLLECTION
M  V30 END CTAB
M  END
>  <Molecule Name>
_c001

>  <status>
-

>  <cas>
552292-08-7

>  <name>
ROLAPITANT

>  <ID>
1801

>  <Smiles>
C[C@H](c1cc(C(F)(F)F)cc(C(F)(F)F)c1)OC[C@](CC1)(c2ccccc2)NC[C@]1(CC1)NC1=O

$$$$
_c001
Actelion Java MolfileCreator 2.0

  0  0  0  0  0  0              0 V3000
M  V30 BEGIN CTAB
M  V30 COUNTS 31 33 0 0 0
M  V30 BEGIN ATOM
M  V30 1 F 7.7942 -2.0 0.0 0
M  V30 2 C 6.9282 -1.5 0.0 0
M  V30 3 C 6.9282 -0.5 0.0 0
M  V30 4 C 6.0621 -2.0 0.0 0
M  V30 5 C 6.0621 0.0 0.0 0
M  V30 6 C 5.1961 -1.5 0.0 0
M  V30 7 C 5.1961 -0.5 0.0 0
M  V30 8 C 4.3301 0.0 0.0 0
M  V30 9 N 3.4641 -0.5 0.0 0
M  V30 10 C 2.598 0.0 0.0 0
M  V30 11 C 3.4641 -1.5 0.0 0
M  V30 12 O 2.598 1.0 0.0 0
M  V30 13 N 1.732 -0.5 0.0 0
M  V30 14 C 2.598 -1.9999 0.0 0
M  V30 15 C 4.3301 -2.0 0.0 0
M  V30 16 C 0.866 0.0 0.0 0
M  V30 17 C 2.598 -2.9999 0.0 0
M  V30 18 C 4.3301 -3.0 0.0 0
M  V30 19 C 0.0 -0.5 0.0 0
M  V30 20 N 3.4641 -3.5 0.0 0
M  V30 21 C -0.866 0.0 0.0 0
M  V30 22 C 0.0 -1.4999 0.0 0
M  V30 23 C 3.4641 -4.5 0.0 0
M  V30 24 C -1.732 -0.4999 0.0 0
M  V30 25 C -0.866 -1.9999 0.0 0
M  V30 26 C -1.732 -1.4999 0.0 0
M  V30 27 O -2.598 -1.9999 0.0 0
M  V30 28 C -2.598 -2.9999 0.0 0
M  V30 29 C -3.4641 -3.4999 0.0 0
M  V30 30 C -4.3301 -2.9999 0.0 0
M  V30 31 C -3.4641 -4.4999 0.0 0
M  V30 END ATOM
M  V30 BEGIN BOND
M  V30 1 1 1 2
M  V30 2 2 2 3
M  V30 3 1 2 4
M  V30 4 1 3 5
M  V30 5 2 4 6
M  V30 6 2 5 7
M  V30 7 1 7 8
M  V30 8 1 8 9
M  V30 9 1 9 10
M  V30 10 1 9 11
M  V30 11 2 10 12
M  V30 12 1 10 13
M  V30 13 1 11 14
M  V30 14 1 11 15
M  V30 15 1 13 16
M  V30 16 1 14 17
M  V30 17 1 15 18
M  V30 18 1 16 19
M  V30 19 1 17 20
M  V30 20 2 19 21
M  V30 21 1 19 22
M  V30 22 1 20 23
M  V30 23 1 21 24
M  V30 24 2 22 25
M  V30 25 2 24 26
M  V30 26 1 26 27
M  V30 27 1 27 28
M  V30 28 1 28 29
M  V30 29 1 29 30
M  V30 30 1 29 31
M  V30 31 1 6 7
M  V30 32 1 18 20
M  V30 33 1 25 26
M  V30 END BOND
M  V30 END CTAB
M  END
>  <Molecule Name>
_c001

>  <status>
-

>  <cas>
706779-91-1

>  <name>
PIMAVANSERIN

>  <ID>
1802

>  <Smiles>
CC(C)COc1ccc(CNC(N(Cc(cc2)ccc2F)C2CCN(C)CC2)=O)cc1

$$$$
_c001
Actelion Java MolfileCreator 2.0

  0  0  0  0  0  0              0 V3000
M  V30 BEGIN CTAB
M  V30 COUNTS 30 32 0 0 0
M  V30 BEGIN ATOM
M  V30 1 F 7.7942 -2.0 0.0 0
M  V30 2 C 6.9282 -1.5 0.0 0
M  V30 3 C 6.9282 -0.5 0.0 0
M  V30 4 C 6.0621 -2.0 0.0 0
M  V30 5 C 6.0621 0.0 0.0 0
M  V30 6 C 5.1961 -1.5 0.0 0
M  V30 7 C 5.1961 -0.5 0.0 0
M  V30 8 C 4.3301 0.0 0.0 0
M  V30 9 N 3.4641 -0.5 0.0 0
M  V30 10 C 2.598 0.0 0.0 0
M  V30 11 C 3.4641 -1.5 0.0 0
M  V30 12 O 2.598 1.0 0.0 0
M  V30 13 N 1.732 -0.5 0.0 0
M  V30 14 C 2.598 -1.9999 0.0 0
M  V30 15 C 4.3301 -2.0 0.0 0
M  V30 16 C 0.866 0.0 0.0 0
M  V30 17 C 2.598 -2.9999 0.0 0
M  V30 18 C 4.3301 -3.0 0.0 0
M  V30 19 C 0.0 -0.5 0.0 0
M  V30 20 N 3.4641 -3.5 0.0 0
M  V30 21 C -0.866 0.0 0.0 0
M  V30 22 C 0.0 -1.4999 0.0 0
M  V30 23 C -1.732 -0.4999 0.0 0
M  V30 24 C -0.866 -1.9999 0.0 0
M  V30 25 C -1.732 -1.4999 0.0 0
M  V30 26 O -2.598 -1.9999 0.0 0
M  V30 27 C -2.598 -2.9999 0.0 0
M  V30 28 C -3.4641 -3.4999 0.0 0
M  V30 29 C -4.3301 -2.9999 0.0 0
M  V30 30 C -3.4641 -4.4999 0.0 0
M  V30 END ATOM
M  V30 BEGIN BOND
M  V30 1 1 1 2
M  V30 2 2 2 3
M  V30 3 1 2 4
M  V30 4 1 3 5
M  V30 5 2 4 6
M  V30 6 2 5 7
M  V30 7 1 7 8
M  V30 8 1 8 9
M  V30 9 1 9 10
M  V30 10 1 9 11
M  V30 11 2 10 12
M  V30 12 1 10 13
M  V30 13 1 11 14
M  V30 14 1 11 15
M  V30 15 1 13 16
M  V30 16 1 14 17
M  V30 17 1 15 18
M  V30 18 1 16 19
M  V30 19 1 17 20
M  V30 20 2 19 21
M  V30 21 1 19 22
M  V30 22 1 21 23
M  V30 23 2 22 24
M  V30 24 2 23 25
M  V30 25 1 25 26
M  V30 26 1 26 27
M  V30 27 1 27 28
M  V30 28 1 28 29
M  V30 29 1 28 30
M  V30 30 1 6 7
M  V30 31 1 18 20
M  V30 32 1 24 25
M  V30 END BOND
M  V30 END CTAB
M  END
>  <Molecule Name>
_c001

>  <status>
-

>  <cas>
639863-77-7

>  <name>
M PIMAVANSERIN

>  <ID>
1803

>  <Smiles>
CC(C)COc1ccc(CNC(N(Cc(cc2)ccc2F)C2CCNCC2)=O)cc1

$$$$
_c001
Actelion Java MolfileCreator 2.0

  0  0  0  0  0  0              0 V3000
M  V30 BEGIN CTAB
M  V30 COUNTS 45 48 0 0 0
M  V30 BEGIN ATOM
M  V30 1 Cl 19.9185 6.0 0.0 0
M  V30 2 C 19.9185 7.0 0.0 0
M  V30 3 C 20.7846 7.5 0.0 0
M  V30 4 C 19.0525 7.5 0.0 0
M  V30 5 Cl 21.6506 7.0 0.0 0
M  V30 6 C 20.7846 8.5 0.0 0
M  V30 7 N 18.1865 7.0 0.0 0
M  V30 8 C 19.0525 8.5 0.0 0
M  V30 9 C 19.9185 9.0 0.0 0
M  V30 10 C 17.3205 7.5 0.0 0
M  V30 11 C 18.1865 6.0 0.0 0
M  V30 12 C 16.4544 7.0 0.0 0
M  V30 13 C 17.3205 5.5 0.0 0
M  V30 14 N 16.4544 6.0 0.0 0
M  V30 15 C 15.5884 5.5 0.0 0
M  V30 16 C 15.5884 4.5 0.0 0
M  V30 17 C 14.7224 4.0 0.0 0
M  V30 18 C 14.7224 3.0 0.0 0
M  V30 19 O 13.8564 2.5 0.0 0
M  V30 20 C 13.8564 1.5 0.0 0
M  V30 21 C 12.9903 1.0 0.0 0
M  V30 22 C 14.7224 1.0 0.0 0
M  V30 23 C 12.9903 0.0 0.0 0
M  V30 24 C 14.7224 0.0 0.0 0
M  V30 25 N 12.1243 -0.5 0.0 0
M  V30 26 C 13.8564 -0.4999 0.0 0
M  V30 27 C 12.1243 -1.5 0.0 0
M  V30 28 C 11.2583 0.0 0.0 0
M  V30 29 C 13.8564 -1.4999 0.0 0
M  V30 30 O 11.2583 -2.0 0.0 0
M  V30 31 C 12.9903 -1.9999 0.0 0
M  V30 32 O 10.3923 -0.5 0.0 0
M  V30 33 C 9.5262 0.0 0.0 0
M  V30 34 O 9.5262 1.0 0.0 0
M  V30 35 C 8.6602 -0.5 0.0 0
M  V30 36 C 7.7942 0.0 0.0 0
M  V30 37 C 6.9282 -0.5 0.0 0
M  V30 38 C 6.0621 0.0 0.0 0
M  V30 39 C 5.1961 -0.5 0.0 0
M  V30 40 C 4.3301 0.0 0.0 0
M  V30 41 C 3.4641 -0.5 0.0 0
M  V30 42 C 2.598 0.0 0.0 0
M  V30 43 C 1.732 -0.5 0.0 0
M  V30 44 C 0.866 0.0 0.0 0
M  V30 45 C 0.0 -0.5 0.0 0
M  V30 END ATOM
M  V30 BEGIN BOND
M  V30 1 1 1 2
M  V30 2 2 2 3
M  V30 3 1 2 4
M  V30 4 1 3 5
M  V30 5 1 3 6
M  V30 6 1 4 7
M  V30 7 2 4 8
M  V30 8 2 6 9
M  V30 9 1 7 10
M  V30 10 1 7 11
M  V30 11 1 10 12
M  V30 12 1 11 13
M  V30 13 1 12 14
M  V30 14 1 14 15
M  V30 15 1 15 16
M  V30 16 1 16 17
M  V30 17 1 17 18
M  V30 18 1 18 19
M  V30 19 1 19 20
M  V30 20 2 20 21
M  V30 21 1 20 22
M  V30 22 1 21 23
M  V30 23 2 22 24
M  V30 24 1 23 25
M  V30 25 2 23 26
M  V30 26 1 25 27
M  V30 27 1 25 28
M  V30 28 1 26 29
M  V30 29 2 27 30
M  V30 30 1 27 31
M  V30 31 1 28 32
M  V30 32 1 32 33
M  V30 33 2 33 34
M  V30 34 1 33 35
M  V30 35 1 35 36
M  V30 36 1 36 37
M  V30 37 1 37 38
M  V30 38 1 38 39
M  V30 39 1 39 40
M  V30 40 1 40 41
M  V30 41 1 41 42
M  V30 42 1 42 43
M  V30 43 1 43 44
M  V30 44 1 44 45
M  V30 45 1 8 9
M  V30 46 1 13 14
M  V30 47 1 24 26
M  V30 48 1 29 31
M  V30 END BOND
M  V30 END CTAB
M  END
>  <Molecule Name>
_c001

>  <status>
-

>  <cas>
1259305-29-7

>  <name>
ARIPIPRAZOLE LAUROXIL

>  <ID>
1804

>  <Smiles>
CCCCCCCCCCCC(OCN(C(CC1)=O)c2c1ccc(OCCCCN(CC1)CCN1c1cccc(Cl)c1Cl)c2)=O

$$$$
_c001
Actelion Java MolfileCreator 2.0

  0  0  0  0  0  0              0 V3000
M  V30 BEGIN CTAB
M  V30 COUNTS 33 35 0 0 0
M  V30 BEGIN ATOM
M  V30 1 P 5.1961 -0.5 0.0 0 CFG=2
M  V30 2 O 6.0621 -1.0 0.0 0
M  V30 3 O 5.1961 -1.4999 0.0 0
M  V30 4 N 4.3301 0.0 0.0 0
M  V30 5 C 6.0621 0.0 0.0 0
M  V30 6 C 6.0621 -2.0 0.0 0
M  V30 7 C 3.4641 -0.5 0.0 0 CFG=1
M  V30 8 O 6.9282 -0.5 0.0 0
M  V30 9 C 6.9282 -1.5 0.0 0
M  V30 10 C 6.0621 -3.0 0.0 0
M  V30 11 C 2.598 0.0 0.0 0
M  V30 12 C 3.4641 -1.5 0.0 0
M  V30 13 C 7.7942 0.0 0.0 0 CFG=2
M  V30 14 C 7.7942 -2.0 0.0 0
M  V30 15 C 6.9282 -3.5 0.0 0
M  V30 16 O 2.598 1.0 0.0 0
M  V30 17 O 1.732 -0.5 0.0 0
M  V30 18 C 8.6602 -0.5 0.0 0
M  V30 19 C 7.7942 0.9999 0.0 0
M  V30 20 C 7.7942 -3.0 0.0 0
M  V30 21 C 0.866 0.0 0.0 0
M  V30 22 N 9.5262 0.0 0.0 0
M  V30 23 C 0.866 1.0 0.0 0
M  V30 24 C 0.0 -0.5 0.0 0
M  V30 25 C 10.4398 -0.4067 0.0 0
M  V30 26 C 9.6308 0.9945 0.0 0
M  V30 27 N 10.7488 -1.3577 0.0 0
M  V30 28 C 11.1089 0.3364 0.0 0
M  V30 29 N 10.6089 1.2024 0.0 0
M  V30 30 C 11.7269 -1.5657 0.0 0
M  V30 31 C 12.0871 0.1284 0.0 0
M  V30 32 N 12.3961 -0.8225 0.0 0
M  V30 33 N 12.7562 0.8716 0.0 0
M  V30 END ATOM
M  V30 BEGIN BOND
M  V30 1 2 1 2
M  V30 2 1 1 3 CFG=1
M  V30 3 1 1 4
M  V30 4 1 1 5
M  V30 5 1 3 6
M  V30 6 1 7 4 CFG=3
M  V30 7 1 5 8
M  V30 8 2 6 9
M  V30 9 1 6 10
M  V30 10 1 7 11
M  V30 11 1 7 12
M  V30 12 1 13 8 CFG=1
M  V30 13 1 9 14
M  V30 14 2 10 15
M  V30 15 2 11 16
M  V30 16 1 11 17
M  V30 17 1 13 18
M  V30 18 1 13 19
M  V30 19 2 14 20
M  V30 20 1 17 21
M  V30 21 1 18 22
M  V30 22 1 21 23
M  V30 23 1 21 24
M  V30 24 1 22 25
M  V30 25 1 22 26
M  V30 26 2 25 27
M  V30 27 1 25 28
M  V30 28 2 26 29
M  V30 29 1 27 30
M  V30 30 2 28 31
M  V30 31 2 30 32
M  V30 32 1 31 33
M  V30 33 1 15 20
M  V30 34 1 28 29
M  V30 35 1 31 32
M  V30 END BOND
M  V30 BEGIN COLLECTION
M  V30 MDLV30/STERAC1 ATOMS=(3 1 7 13)
M  V30 END COLLECTION
M  V30 END CTAB
M  END
>  <Molecule Name>
_c001

>  <status>
-

>  <cas>
379270-37-8

>  <name>
TENOFOVIR ALAFENAMIDE

>  <ID>
1805

>  <Smiles>
CC(C)OC([C@@H](C)N[P@@](CO[C@@H](C)Cn1c2ncnc(N)c2nc1)(Oc1ccccc1)=O)=O

$$$$
_c001
Actelion Java MolfileCreator 2.0

  0  0  0  0  0  0              0 V3000
M  V30 BEGIN CTAB
M  V30 COUNTS 35 37 0 0 0
M  V30 BEGIN ATOM
M  V30 1 S 9.5262 0.0 0.0 0
M  V30 2 O 10.0262 -0.866 0.0 0
M  V30 3 O 9.0262 0.866 0.0 0
M  V30 4 N 8.6602 -0.5 0.0 0
M  V30 5 C 10.3923 0.4999 0.0 0
M  V30 6 C 7.7942 0.0 0.0 0
M  V30 7 O 7.7942 0.9999 0.0 0
M  V30 8 C 6.9282 -0.5 0.0 0
M  V30 9 O 6.0621 0.0 0.0 0
M  V30 10 C 5.1961 -0.5 0.0 0
M  V30 11 C 4.3301 0.0 0.0 0
M  V30 12 C 3.4641 -0.5 0.0 0
M  V30 13 C 2.598 0.0 0.0 0
M  V30 14 N 1.732 -0.5 0.0 0
M  V30 15 C 1.732 -1.5 0.0 0
M  V30 16 C 0.866 0.0 0.0 0
M  V30 17 N 0.866 -1.9999 0.0 0
M  V30 18 C 2.598 -2.0 0.0 0
M  V30 19 C 0.866 1.0 0.0 0
M  V30 20 C 0.0 -0.5 0.0 0
M  V30 21 C 0.866 -2.9999 0.0 0
M  V30 22 N 2.598 -3.0 0.0 0
M  V30 23 C 1.732 -3.5 0.0 0
M  V30 24 C 0.0 -3.4999 0.0 0
M  V30 25 C 1.732 -4.5 0.0 0
M  V30 26 C -0.866 -2.9999 0.0 0
M  V30 27 C 0.0 -4.4999 0.0 0
M  V30 28 C 0.866 -4.9999 0.0 0
M  V30 29 C 2.598 -5.0 0.0 0
M  V30 30 C -1.732 -3.4999 0.0 0
M  V30 31 C -0.866 -4.9999 0.0 0
M  V30 32 C 0.866 -5.9999 0.0 0
M  V30 33 C 2.598 -6.0 0.0 0
M  V30 34 C -1.732 -4.4999 0.0 0
M  V30 35 C 1.732 -6.5 0.0 0
M  V30 END ATOM
M  V30 BEGIN BOND
M  V30 1 2 1 2
M  V30 2 2 1 3
M  V30 3 1 1 4
M  V30 4 1 1 5
M  V30 5 1 4 6
M  V30 6 2 6 7
M  V30 7 1 6 8
M  V30 8 1 8 9
M  V30 9 1 9 10
M  V30 10 1 10 11
M  V30 11 1 11 12
M  V30 12 1 12 13
M  V30 13 1 13 14
M  V30 14 1 14 15
M  V30 15 1 14 16
M  V30 16 2 15 17
M  V30 17 1 15 18
M  V30 18 1 16 19
M  V30 19 1 16 20
M  V30 20 1 17 21
M  V30 21 2 18 22
M  V30 22 2 21 23
M  V30 23 1 21 24
M  V30 24 1 23 25
M  V30 25 2 24 26
M  V30 26 1 24 27
M  V30 27 2 25 28
M  V30 28 1 25 29
M  V30 29 1 26 30
M  V30 30 2 27 31
M  V30 31 1 28 32
M  V30 32 2 29 33
M  V30 33 2 30 34
M  V30 34 2 32 35
M  V30 35 1 22 23
M  V30 36 1 31 34
M  V30 37 1 33 35
M  V30 END BOND
M  V30 END CTAB
M  END
>  <Molecule Name>
_c001

>  <status>
-

>  <cas>
475086-01-2

>  <name>
SELEXIPAG

>  <ID>
1806

>  <Smiles>
CC(C)N(CCCCOCC(NS(C)(=O)=O)=O)c1nc(-c2ccccc2)c(-c2ccccc2)nc1

$$$$
_c001
Actelion Java MolfileCreator 2.0

  0  0  0  0  0  0              0 V3000
M  V30 BEGIN CTAB
M  V30 COUNTS 31 33 0 0 0
M  V30 BEGIN ATOM
M  V30 1 O 8.6602 -0.5 0.0 0
M  V30 2 C 7.7942 0.0 0.0 0
M  V30 3 N 7.7942 0.9999 0.0 0
M  V30 4 C 6.9282 -0.5 0.0 0
M  V30 5 O 6.0621 0.0 0.0 0
M  V30 6 C 5.1961 -0.5 0.0 0
M  V30 7 C 4.3301 0.0 0.0 0
M  V30 8 C 3.4641 -0.5 0.0 0
M  V30 9 C 2.598 0.0 0.0 0
M  V30 10 N 1.732 -0.5 0.0 0
M  V30 11 C 1.732 -1.5 0.0 0
M  V30 12 C 0.866 0.0 0.0 0
M  V30 13 N 0.866 -1.9999 0.0 0
M  V30 14 C 2.598 -2.0 0.0 0
M  V30 15 C 0.866 1.0 0.0 0
M  V30 16 C 0.0 -0.5 0.0 0
M  V30 17 C 0.866 -2.9999 0.0 0
M  V30 18 N 2.598 -3.0 0.0 0
M  V30 19 C 1.732 -3.5 0.0 0
M  V30 20 C 0.0 -3.4999 0.0 0
M  V30 21 C 1.732 -4.5 0.0 0
M  V30 22 C -0.866 -2.9999 0.0 0
M  V30 23 C 0.0 -4.4999 0.0 0
M  V30 24 C 0.866 -4.9999 0.0 0
M  V30 25 C 2.598 -5.0 0.0 0
M  V30 26 C -1.732 -3.4999 0.0 0
M  V30 27 C -0.866 -4.9999 0.0 0
M  V30 28 C 0.866 -5.9999 0.0 0
M  V30 29 C 2.598 -6.0 0.0 0
M  V30 30 C -1.732 -4.4999 0.0 0
M  V30 31 C 1.732 -6.5 0.0 0
M  V30 END ATOM
M  V30 BEGIN BOND
M  V30 1 2 1 2
M  V30 2 1 2 3
M  V30 3 1 2 4
M  V30 4 1 4 5
M  V30 5 1 5 6
M  V30 6 1 6 7
M  V30 7 1 7 8
M  V30 8 1 8 9
M  V30 9 1 9 10
M  V30 10 1 10 11
M  V30 11 1 10 12
M  V30 12 2 11 13
M  V30 13 1 11 14
M  V30 14 1 12 15
M  V30 15 1 12 16
M  V30 16 1 13 17
M  V30 17 2 14 18
M  V30 18 2 17 19
M  V30 19 1 17 20
M  V30 20 1 19 21
M  V30 21 2 20 22
M  V30 22 1 20 23
M  V30 23 2 21 24
M  V30 24 1 21 25
M  V30 25 1 22 26
M  V30 26 2 23 27
M  V30 27 1 24 28
M  V30 28 2 25 29
M  V30 29 2 26 30
M  V30 30 2 28 31
M  V30 31 1 18 19
M  V30 32 1 27 30
M  V30 33 1 29 31
M  V30 END BOND
M  V30 END CTAB
M  END
>  <Molecule Name>
_c001

>  <status>
-

>  <cas>
475086-28-3

>  <name>
M SELEXIPAG

>  <ID>
1807

>  <Smiles>
CC(C)N(CCCCOCC(N)=O)c1nc(-c2ccccc2)c(-c2ccccc2)nc1

$$$$
_c001
Actelion Java MolfileCreator 2.0

  0  0  0  0  0  0              0 V3000
M  V30 BEGIN CTAB
M  V30 COUNTS 54 62 0 0 0
M  V30 BEGIN ATOM
M  V30 1 S 1.918 -0.0363 0.0 0
M  V30 2 C 1.732 1.4999 0.0 0 CFG=1
M  V30 3 C 2.6881 -0.774 0.0 0
M  V30 4 C 2.598 0.9999 0.0 0
M  V30 5 C 1.732 2.4999 0.0 0 CFG=1
M  V30 6 C 3.7362 -0.8824 0.0 0 CFG=1
M  V30 7 C 2.5992 0.0011 0.0 0
M  V30 8 C 3.4641 1.4999 0.0 0
M  V30 9 N 2.598 2.9999 0.0 0
M  V30 10 C 0.866 2.9999 0.0 0 CFG=1
M  V30 11 N 2.9395 -1.5476 0.0 0
M  V30 12 C 4.5532 -0.425 0.0 0
M  V30 13 C 4.6337 -1.1875 0.0 0
M  V30 14 O 1.7256 -0.5067 0.0 0
M  V30 15 C 3.4542 -0.4613 0.0 0
M  V30 16 C 4.3301 1.0 0.0 0
M  V30 17 C 3.4641 2.4999 0.0 0 CFG=2
M  V30 18 C 2.598 4.0 0.0 0 CFG=2
M  V30 19 N 0.866 3.9999 0.0 0
M  V30 20 C -0.2886 3.6666 0.0 0
M  V30 21 C 3.1474 -2.5258 0.0 0
M  V30 22 O 5.3465 -1.1084 0.0 0
M  V30 23 O 4.9554 0.535 0.0 0
M  V30 24 C 4.8416 -2.1656 0.0 0
M  V30 25 C 5.4005 -0.5538 0.0 0
M  V30 26 C 0.866 0.0 0.0 0
M  V30 27 C 4.307 0.0142 0.0 0
M  V30 28 C 3.5257 -1.5685 0.0 0
M  V30 29 O 5.2911 1.3111 0.0 0
M  V30 30 C 4.7258 1.5799 0.0 0
M  V30 31 O 3.4641 4.5 0.0 0
M  V30 32 C 1.732 4.4999 0.0 0 CFG=2
M  V30 33 C 0.0768 4.4556 0.0 0
M  V30 34 C -1.1547 3.1666 0.0 0
M  V30 35 C -0.3224 4.6861 0.0 0
M  V30 36 C 4.0984 -2.8348 0.0 0
M  V30 37 C 5.7926 -2.4747 0.0 0
M  V30 38 C 6.3279 -0.8274 0.0 0
M  V30 39 O 0.866 1.0 0.0 0
M  V30 40 C 0.0 -0.5 0.0 0
M  V30 41 O 5.2251 -0.1863 0.0 0
M  V30 42 C 5.8689 0.5 0.0 0
M  V30 43 C 0.5773 5.1666 0.0 0
M  V30 44 O -1.1547 2.1666 0.0 0
M  V30 45 C -2.0207 3.6666 0.0 0
M  V30 46 C -1.1547 5.1666 0.0 0
M  V30 47 C 6.5358 -1.8055 0.0 0
M  V30 48 O 7.071 -0.1583 0.0 0
M  V30 49 O -2.8867 3.1666 0.0 0
M  V30 50 C -2.0207 4.6666 0.0 0
M  V30 51 O 7.4868 -2.1146 0.0 0
M  V30 52 C 6.8631 0.8198 0.0 0
M  V30 53 C -2.8867 2.1666 0.0 0
M  V30 54 C -2.8867 5.1666 0.0 0
M  V30 END ATOM
M  V30 BEGIN BOND
M  V30 1 1 2 1 CFG=3
M  V30 2 1 1 3
M  V30 3 1 2 4
M  V30 4 1 5 2
M  V30 5 1 6 3
M  V30 6 2 4 7
M  V30 7 1 4 8
M  V30 8 1 5 9 CFG=3
M  V30 9 1 10 5
M  V30 10 1 6 11 CFG=3
M  V30 11 1 6 12
M  V30 12 1 6 13
M  V30 13 1 7 14
M  V30 14 1 7 15
M  V30 15 2 8 16
M  V30 16 1 17 8
M  V30 17 1 18 9
M  V30 18 1 10 19
M  V30 19 1 10 20 CFG=3
M  V30 20 1 11 21
M  V30 21 2 12 22
M  V30 22 1 12 23
M  V30 23 2 13 24
M  V30 24 1 13 25
M  V30 25 1 14 26
M  V30 26 2 15 27
M  V30 27 1 15 28
M  V30 28 1 16 29
M  V30 29 1 17 30
M  V30 30 1 18 31 CFG=1
M  V30 31 1 32 18
M  V30 32 1 19 33
M  V30 33 2 20 34
M  V30 34 1 20 35
M  V30 35 1 21 36
M  V30 36 1 24 37
M  V30 37 2 25 38
M  V30 38 2 26 39
M  V30 39 1 26 40
M  V30 40 1 27 41
M  V30 41 1 29 42
M  V30 42 1 32 43 CFG=3
M  V30 43 1 34 44
M  V30 44 1 34 45
M  V30 45 2 35 46
M  V30 46 2 37 47
M  V30 47 1 38 48
M  V30 48 1 45 49
M  V30 49 2 45 50
M  V30 50 1 47 51
M  V30 51 1 48 52
M  V30 52 1 49 53
M  V30 53 1 50 54
M  V30 54 1 17 9 CFG=3
M  V30 55 1 16 27
M  V30 56 1 19 32
M  V30 57 1 23 30
M  V30 58 1 24 36
M  V30 59 1 35 43
M  V30 60 1 38 47
M  V30 61 1 41 42
M  V30 62 1 46 50
M  V30 END BOND
M  V30 BEGIN COLLECTION
M  V30 MDLV30/STERAC1 ATOMS=(7 2 5 6 10 17 18 32)
M  V30 END COLLECTION
M  V30 END CTAB
M  END
>  <Molecule Name>
_c001

>  <status>
-

>  <cas>
114899-77-3

>  <name>
TRABECTEDIN

>  <ID>
1808

>  <Smiles>
CC(Oc1c([C@@H]([C@H]([C@H](c2c3O)N(C)[C@@H]4Cc2cc(C)c3OC)N([C@@H]2COC3=O)[C@@H]4O)SC[C@@]33NCCc(cc4O)c3cc4OC)c2c2OCOc2c1C)=O

$$$$
_c001
Actelion Java MolfileCreator 2.0

  0  0  0  0  0  0              0 V3000
M  V30 BEGIN CTAB
M  V30 COUNTS 16 17 0 0 0
M  V30 BEGIN ATOM
M  V30 1 Cl 0.866 -1.9999 0.0 0
M  V30 2 C 1.732 -1.4999 0.0 0
M  V30 3 C 2.598 -1.9999 0.0 0
M  V30 4 C 1.732 -0.5 0.0 0
M  V30 5 O 2.598 -3.0 0.0 0
M  V30 6 N 3.4641 -1.4999 0.0 0
M  V30 7 N 2.598 0.0 0.0 0
M  V30 8 C 0.866 0.0 0.0 0
M  V30 9 C 3.4641 -0.5 0.0 0
M  V30 10 N 0.0 -0.5 0.0 0
M  V30 11 O 4.3301 0.0 0.0 0
M  V30 12 C -0.9135 -0.0932 0.0 0
M  V30 13 C -0.1045 -1.4945 0.0 0
M  V30 14 N -1.1214 0.8848 0.0 0
M  V30 15 C -1.5826 -0.8364 0.0 0
M  V30 16 C -1.0826 -1.7024 0.0 0
M  V30 END ATOM
M  V30 BEGIN BOND
M  V30 1 1 1 2
M  V30 2 1 2 3
M  V30 3 2 2 4
M  V30 4 2 3 5
M  V30 5 1 3 6
M  V30 6 1 4 7
M  V30 7 1 4 8
M  V30 8 1 6 9
M  V30 9 1 8 10
M  V30 10 2 9 11
M  V30 11 1 10 12
M  V30 12 1 10 13
M  V30 13 2 12 14
M  V30 14 1 12 15
M  V30 15 1 13 16
M  V30 16 1 7 9
M  V30 17 1 15 16
M  V30 END BOND
M  V30 END CTAB
M  END
>  <Molecule Name>
_c001

>  <status>
-

>  <cas>
183204-74-2

>  <name>
TIPIRACIL

>  <ID>
1809

>  <Smiles>
N=C1N(CC(NC(NC2=O)=O)=C2Cl)CCC1

$$$$
_c001
Actelion Java MolfileCreator 2.0

  0  0  0  0  0  0              0 V3000
M  V30 BEGIN CTAB
M  V30 COUNTS 24 27 0 0 0
M  V30 BEGIN ATOM
M  V30 1 Br 4.9535 -2.6159 0.0 0
M  V30 2 C 4.5467 -1.7024 0.0 0
M  V30 3 N 5.0467 -0.8364 0.0 0
M  V30 4 N 3.5686 -1.4945 0.0 0
M  V30 5 N 4.3776 -0.0932 0.0 0
M  V30 6 C 2.8254 -2.1636 0.0 0
M  V30 7 C 3.4641 -0.5 0.0 0
M  V30 8 C 1.8744 -1.8546 0.0 0
M  V30 9 C 3.0333 -3.1418 0.0 0
M  V30 10 S 2.598 0.0 0.0 0
M  V30 11 C 1.1312 -2.5237 0.0 0
M  V30 12 C 1.6665 -0.8764 0.0 0
M  V30 13 C 2.2902 -3.8109 0.0 0
M  V30 14 C 2.598 0.9999 0.0 0
M  V30 15 C 1.3391 -3.5019 0.0 0
M  V30 16 C 0.1802 -2.2147 0.0 0
M  V30 17 C 0.7154 -0.5674 0.0 0
M  V30 18 C 1.732 1.4999 0.0 0
M  V30 19 C 0.596 -4.171 0.0 0
M  V30 20 C -0.0276 -1.2366 0.0 0
M  V30 21 O 0.866 0.9999 0.0 0
M  V30 22 O 1.732 2.4999 0.0 0 CHG=-1
M  V30 23 C -0.382 -4.3789 0.0 0
M  V30 24 C 0.287 -5.1221 0.0 0
M  V30 END ATOM
M  V30 BEGIN BOND
M  V30 1 1 1 2
M  V30 2 2 2 3
M  V30 3 1 2 4
M  V30 4 1 3 5
M  V30 5 1 4 6
M  V30 6 1 4 7
M  V30 7 1 6 8
M  V30 8 2 6 9
M  V30 9 1 7 10
M  V30 10 1 8 11
M  V30 11 2 8 12
M  V30 12 1 9 13
M  V30 13 1 10 14
M  V30 14 1 11 15
M  V30 15 2 11 16
M  V30 16 1 12 17
M  V30 17 1 14 18
M  V30 18 1 15 19
M  V30 19 1 16 20
M  V30 20 2 18 21
M  V30 21 1 18 22
M  V30 22 1 19 23
M  V30 23 1 19 24
M  V30 24 2 5 7
M  V30 25 2 13 15
M  V30 26 2 17 20
M  V30 27 1 23 24
M  V30 END BOND
M  V30 END CTAB
M  END
>  <Molecule Name>
_c001

>  <status>
DISCONTINUED

>  <cas>
878672-00-5

>  <name>
LESINURAD

>  <ID>
1810

>  <Smiles>
[O-]C(CSc(n1-c2ccc(C3CC3)c3ccccc23)nnc1Br)=O

$$$$
_c001
Actelion Java MolfileCreator 2.0

  0  0  0  0  0  0              0 V3000
M  V30 BEGIN CTAB
M  V30 COUNTS 30 33 0 0 0
M  V30 BEGIN ATOM
M  V30 1 O 4.3301 0.0 0.0 0
M  V30 2 C 3.4641 -0.5 0.0 0
M  V30 3 O 3.4641 -1.5 0.0 0 CHG=-1
M  V30 4 C 2.598 0.0 0.0 0
M  V30 5 C 1.732 -0.5 0.0 0
M  V30 6 C 0.866 0.0 0.0 0 CFG=1
M  V30 7 C 0.866 1.0 0.0 0 CFG=1
M  V30 8 C 0.0 -0.5 0.0 0
M  V30 9 C 1.675 1.5877 0.0 0 CFG=1
M  V30 10 C 0.057 1.5877 0.0 0
M  V30 11 C 1.366 2.5388 0.0 0 CFG=2
M  V30 12 C 2.6531 1.3798 0.0 0
M  V30 13 C 1.8829 0.6096 0.0 0
M  V30 14 C 0.366 2.5388 0.0 0
M  V30 15 C 2.0351 3.2819 0.0 0 CFG=1
M  V30 16 C 3.3223 2.123 0.0 0
M  V30 17 C 1.7261 4.233 0.0 0 CFG=1
M  V30 18 C 3.0133 3.074 0.0 0 CFG=1
M  V30 19 O 0.7479 4.4409 0.0 0
M  V30 20 C 2.3952 4.9761 0.0 0 CFG=2
M  V30 21 C 3.6824 3.8172 0.0 0 CFG=1
M  V30 22 C 3.3734 4.7682 0.0 0 CFG=2
M  V30 23 C 2.0862 5.9272 0.0 0
M  V30 24 C 4.6605 3.6093 0.0 0
M  V30 25 C 3.9914 2.8661 0.0 0
M  V30 26 C 4.0425 5.5114 0.0 0
M  V30 27 C 1.1081 6.1351 0.0 0
M  V30 28 C 5.3297 4.3524 0.0 0
M  V30 29 C 5.0206 5.3035 0.0 0 CFG=2
M  V30 30 O 5.6898 6.0466 0.0 0
M  V30 END ATOM
M  V30 BEGIN BOND
M  V30 1 2 1 2
M  V30 2 1 2 3
M  V30 3 1 2 4
M  V30 4 1 4 5
M  V30 5 1 6 5
M  V30 6 1 7 6
M  V30 7 1 6 8 CFG=3
M  V30 8 1 9 7
M  V30 9 1 7 10 CFG=3
M  V30 10 1 11 9
M  V30 11 1 9 12
M  V30 12 1 9 13 CFG=3
M  V30 13 1 10 14
M  V30 14 1 15 11 CFG=1
M  V30 15 1 12 16
M  V30 16 1 17 15
M  V30 17 1 18 15
M  V30 18 1 17 19 CFG=1
M  V30 19 1 20 17
M  V30 20 1 21 18
M  V30 21 1 22 20
M  V30 22 1 20 23 CFG=1
M  V30 23 1 21 24
M  V30 24 1 21 25 CFG=3
M  V30 25 1 22 26 CFG=1
M  V30 26 1 23 27
M  V30 27 1 24 28
M  V30 28 1 29 26
M  V30 29 1 29 30 CFG=1
M  V30 30 1 11 14 CFG=3
M  V30 31 1 18 16 CFG=3
M  V30 32 1 21 22
M  V30 33 1 28 29
M  V30 END BOND
M  V30 BEGIN COLLECTION
M  V30 MDLV30/STERAC1 ATOMS=(11 6 7 9 11 15 17 18 20 21 22 29)
M  V30 END COLLECTION
M  V30 END CTAB
M  END
>  <Molecule Name>
_c001

>  <status>
-

>  <cas>
459789-99-2

>  <name>
OBETICHOLIC ACID

>  <ID>
1811

>  <Smiles>
CC[C@@H]([C@@H](C[C@H](CC1)O)[C@]1(C)[C@H](CC1)[C@H]2[C@@H](CC3)[C@]1(C)[C@@H]3[C@@H](C)CCC([O-])=O)[C@@H]2O

$$$$
_c001
Actelion Java MolfileCreator 2.0

  0  0  0  0  0  0              0 V3000
M  V30 BEGIN CTAB
M  V30 COUNTS 37 40 0 0 0
M  V30 BEGIN ATOM
M  V30 1 O 4.3301 3.0 0.0 0
M  V30 2 C 3.4641 2.4999 0.0 0
M  V30 3 N 3.4641 1.4999 0.0 0
M  V30 4 C 2.598 2.9999 0.0 0
M  V30 5 C 4.3301 1.0 0.0 0
M  V30 6 C 2.598 3.9999 0.0 0
M  V30 7 C 4.3301 0.0 0.0 0
M  V30 8 C 5.1961 1.5 0.0 0
M  V30 9 N 3.4641 -0.5 0.0 0
M  V30 10 C 5.1961 -0.4999 0.0 0
M  V30 11 C 6.0621 1.0 0.0 0
M  V30 12 C 3.4641 -1.5 0.0 0
M  V30 13 C 2.598 0.0 0.0 0
M  V30 14 C 6.0621 0.0 0.0 0
M  V30 15 N 6.9282 1.5 0.0 0
M  V30 16 C 2.598 -1.9999 0.0 0
M  V30 17 O 6.9282 -0.4999 0.0 0
M  V30 18 C 6.9282 2.5 0.0 0
M  V30 19 N 2.598 -2.9999 0.0 0
M  V30 20 C 7.7942 0.0 0.0 0
M  V30 21 N 7.7942 3.0 0.0 0
M  V30 22 N 6.0621 3.0 0.0 0
M  V30 23 C 3.4641 -3.5 0.0 0
M  V30 24 C 1.732 -3.5 0.0 0
M  V30 25 C 7.7942 4.0 0.0 0
M  V30 26 C 6.0621 4.0 0.0 0
M  V30 27 C 8.6602 4.5 0.0 0
M  V30 28 C 6.9282 4.5 0.0 0
M  V30 29 C 9.5737 4.0932 0.0 0
M  V30 30 C 8.7647 5.4945 0.0 0
M  V30 31 C 10.2429 4.8364 0.0 0
M  V30 32 C 9.8828 3.1422 0.0 0
M  V30 33 N 9.7429 5.7024 0.0 0
M  V30 34 C 11.221 4.6284 0.0 0
M  V30 35 C 10.8609 2.9342 0.0 0
M  V30 36 C 10.1496 6.6159 0.0 0
M  V30 37 C 11.53 3.6774 0.0 0
M  V30 END ATOM
M  V30 BEGIN BOND
M  V30 1 2 1 2
M  V30 2 1 2 3
M  V30 3 1 2 4
M  V30 4 1 3 5
M  V30 5 2 4 6
M  V30 6 2 5 7
M  V30 7 1 5 8
M  V30 8 1 7 9
M  V30 9 1 7 10
M  V30 10 2 8 11
M  V30 11 1 9 12
M  V30 12 1 9 13
M  V30 13 2 10 14
M  V30 14 1 11 15
M  V30 15 1 12 16
M  V30 16 1 14 17
M  V30 17 1 15 18
M  V30 18 1 16 19
M  V30 19 1 17 20
M  V30 20 2 18 21
M  V30 21 1 18 22
M  V30 22 1 19 23
M  V30 23 1 19 24
M  V30 24 1 21 25
M  V30 25 2 22 26
M  V30 26 1 25 27
M  V30 27 2 25 28
M  V30 28 1 27 29
M  V30 29 2 27 30
M  V30 30 2 29 31
M  V30 31 1 29 32
M  V30 32 1 30 33
M  V30 33 1 31 34
M  V30 34 2 32 35
M  V30 35 1 33 36
M  V30 36 2 34 37
M  V30 37 1 11 14
M  V30 38 1 26 28
M  V30 39 1 31 33
M  V30 40 1 35 37
M  V30 END BOND
M  V30 END CTAB
M  END
>  <Molecule Name>
_c001

>  <status>
-

>  <cas>
1421373-65-0

>  <name>
OSIMERTINIB

>  <ID>
1812

>  <Smiles>
CN(C)CCN(C)c(cc(c(Nc1nc(-c2cn(C)c3c2cccc3)ccn1)c1)OC)c1NC(C=C)=O

$$$$
_c001
Actelion Java MolfileCreator 2.0

  0  0  0  0  0  0              0 V3000
M  V30 BEGIN CTAB
M  V30 COUNTS 26 27 0 0 0
M  V30 BEGIN ATOM
M  V30 1 O 8.7903 1.486 0.0 0
M  V30 2 C 9.672 0.2724 0.0 0
M  V30 3 N 9.0619 -1.0978 0.0 0
M  V30 4 N 11.1638 0.4292 0.0 0
M  V30 5 C 9.9436 -2.3113 0.0 0
M  V30 6 C 7.5701 -1.2546 0.0 0 CFG=1
M  V30 7 C 12.0455 -0.7842 0.0 0
M  V30 8 C 11.4354 -2.1545 0.0 0
M  V30 9 O 6.5664 -0.1398 0.0 0
M  V30 10 C 6.8201 -2.5536 0.0 0 CFG=1
M  V30 11 O 13.5372 -0.6274 0.0 0
M  V30 12 C 5.1961 -0.75 0.0 0 CFG=2
M  V30 13 O 7.4302 -3.9239 0.0 0
M  V30 14 C 5.3529 -2.2417 0.0 0 CFG=2
M  V30 15 C 3.8971 0.0 0.0 0
M  V30 16 C 6.5485 -5.1374 0.0 0
M  V30 17 O 4.2382 -3.2454 0.0 0
M  V30 18 O 3.8971 1.4999 0.0 0
M  V30 19 O 5.0568 -4.9807 0.0 0
M  V30 20 C 7.1586 -6.5078 0.0 0
M  V30 21 C 2.8116 -2.7819 0.0 0
M  V30 22 C 2.598 2.2499 0.0 0
M  V30 23 O 2.4997 -1.3147 0.0 0
M  V30 24 C 1.6969 -3.7856 0.0 0
M  V30 25 O 1.299 1.4999 0.0 0
M  V30 26 C 2.598 3.75 0.0 0
M  V30 END ATOM
M  V30 BEGIN BOND
M  V30 1 2 1 2
M  V30 2 1 2 3
M  V30 3 1 2 4
M  V30 4 1 3 5
M  V30 5 1 6 3 CFG=3
M  V30 6 1 4 7
M  V30 7 2 5 8
M  V30 8 1 6 9
M  V30 9 1 10 6
M  V30 10 2 7 11
M  V30 11 1 12 9
M  V30 12 1 10 13 CFG=1
M  V30 13 1 14 10
M  V30 14 1 12 15 CFG=3
M  V30 15 1 13 16
M  V30 16 1 14 17 CFG=1
M  V30 17 1 15 18
M  V30 18 2 16 19
M  V30 19 1 16 20
M  V30 20 1 17 21
M  V30 21 1 18 22
M  V30 22 2 21 23
M  V30 23 1 21 24
M  V30 24 2 22 25
M  V30 25 1 22 26
M  V30 26 1 7 8
M  V30 27 1 12 14
M  V30 END BOND
M  V30 BEGIN COLLECTION
M  V30 MDLV30/STERAC1 ATOMS=(4 6 10 12 14)
M  V30 END COLLECTION
M  V30 END CTAB
M  END
>  <Molecule Name>
_c001

>  <status>
-

>  <cas>
4105-38-8

>  <name>
URIDINE TRIACETATE

>  <ID>
1813

>  <Smiles>
CC(OC[C@@H]([C@@H]([C@@H]1OC(C)=O)OC(C)=O)O[C@@H]1N(C=CC(N1)=O)C1=O)=O

$$$$
_c001
Actelion Java MolfileCreator 2.0

  0  0  0  0  0  0              0 V3000
M  V30 BEGIN CTAB
M  V30 COUNTS 17 18 0 0 0
M  V30 BEGIN ATOM
M  V30 1 O 4.1282 0.9906 0.0 0
M  V30 2 C 4.7159 0.1816 0.0 0
M  V30 3 N 4.3092 -0.7318 0.0 0
M  V30 4 N 5.7105 0.2861 0.0 0
M  V30 5 C 4.897 -1.5408 0.0 0
M  V30 6 C 3.3147 -0.8364 0.0 0 CFG=1
M  V30 7 C 6.2982 -0.5228 0.0 0
M  V30 8 C 5.8915 -1.4363 0.0 0
M  V30 9 O 2.6455 -0.0932 0.0 0
M  V30 10 C 2.8147 -1.7024 0.0 0 CFG=1
M  V30 11 O 7.2928 -0.4182 0.0 0
M  V30 12 C 1.732 -0.5 0.0 0 CFG=2
M  V30 13 O 3.2214 -2.6159 0.0 0
M  V30 14 C 1.8365 -1.4945 0.0 0 CFG=2
M  V30 15 C 0.866 0.0 0.0 0
M  V30 16 O 1.0934 -2.1636 0.0 0
M  V30 17 O 0.0 -0.5 0.0 0
M  V30 END ATOM
M  V30 BEGIN BOND
M  V30 1 2 1 2
M  V30 2 1 2 3
M  V30 3 1 2 4
M  V30 4 1 3 5
M  V30 5 1 6 3 CFG=3
M  V30 6 1 4 7
M  V30 7 2 5 8
M  V30 8 1 6 9
M  V30 9 1 10 6
M  V30 10 2 7 11
M  V30 11 1 12 9
M  V30 12 1 10 13 CFG=1
M  V30 13 1 14 10
M  V30 14 1 12 15 CFG=3
M  V30 15 1 14 16 CFG=1
M  V30 16 1 15 17
M  V30 17 1 7 8
M  V30 18 1 12 14
M  V30 END BOND
M  V30 BEGIN COLLECTION
M  V30 MDLV30/STERAC1 ATOMS=(4 6 10 12 14)
M  V30 END COLLECTION
M  V30 END CTAB
M  END
>  <Molecule Name>
_c001

>  <status>
-

>  <cas>
58-96-8

>  <name>
URIDINE

>  <ID>
1814

>  <Smiles>
OC[C@@H]([C@@H]([C@@H]1O)O)O[C@@H]1N(C=CC(N1)=O)C1=O

$$$$
_c001
Actelion Java MolfileCreator 2.0

  0  0  0  0  0  0              0 V3000
M  V30 BEGIN CTAB
M  V30 COUNTS 65 73 0 0 0
M  V30 BEGIN ATOM
M  V30 1 O 3.9064 -5.8385 0.0 0
M  V30 2 C 4.9009 -5.943 0.0 0
M  V30 3 O 5.3076 -6.8566 0.0 0
M  V30 4 N 5.4887 -5.134 0.0 0
M  V30 5 C 4.7199 -7.6656 0.0 0
M  V30 6 C 5.082 -4.2205 0.0 0 CFG=2
M  V30 7 C 4.0874 -4.1159 0.0 0
M  V30 8 C 5.6697 -3.4114 0.0 0
M  V30 9 O 3.4997 -4.9249 0.0 0
M  V30 10 N 3.6807 -3.2024 0.0 0
M  V30 11 C 6.6643 -3.516 0.0 0
M  V30 12 C 5.263 -2.4979 0.0 0
M  V30 13 C 2.7026 -2.9945 0.0 0 CFG=2
M  V30 14 C 4.1807 -2.3364 0.0 0
M  V30 15 C 1.9594 -3.6636 0.0 0
M  V30 16 C 2.598 -2.0 0.0 0
M  V30 17 C 3.5116 -1.5932 0.0 0
M  V30 18 N 0.9813 -3.4557 0.0 0
M  V30 19 N 2.0639 -4.6581 0.0 0
M  V30 20 C 0.4813 -4.3217 0.0 0
M  V30 21 C 1.1504 -5.0649 0.0 0
M  V30 22 C -0.5132 -4.4262 0.0 0
M  V30 23 C -1.1009 -3.6172 0.0 0
M  V30 24 C -0.9199 -5.3398 0.0 0
M  V30 25 C -2.0955 -3.7218 0.0 0
M  V30 26 C -1.9144 -5.4443 0.0 0
M  V30 27 O -2.6833 -2.9127 0.0 0
M  V30 28 C -2.5022 -4.6353 0.0 0
M  V30 29 C -3.6778 -3.0173 0.0 0 CFG=2
M  V30 30 C -3.4967 -4.7398 0.0 0
M  V30 31 N -4.0845 -3.9308 0.0 0
M  V30 32 C -4.2656 -2.2083 0.0 0
M  V30 33 C -4.0845 -5.5488 0.0 0
M  V30 34 C -5.0356 -4.2398 0.0 0
M  V30 35 C -3.8588 -1.2947 0.0 0
M  V30 36 C -5.2601 -2.3128 0.0 0
M  V30 37 C -5.0356 -5.2398 0.0 0
M  V30 38 C -5.9016 -3.7398 0.0 0
M  V30 39 C -4.4466 -0.4857 0.0 0
M  V30 40 C -5.8479 -1.5038 0.0 0
M  V30 41 C -5.9016 -5.7398 0.0 0
M  V30 42 C -6.7676 -4.2398 0.0 0
M  V30 43 C -5.4411 -0.5902 0.0 0
M  V30 44 C -6.7676 -5.2398 0.0 0
M  V30 45 C -7.6336 -5.7398 0.0 0
M  V30 46 N -8.5472 -5.3331 0.0 0
M  V30 47 C -7.7382 -6.7344 0.0 0
M  V30 48 C -9.2163 -6.0762 0.0 0
M  V30 49 N -8.7163 -6.9423 0.0 0
M  V30 50 C -10.2108 -5.9717 0.0 0 CFG=1
M  V30 51 N -10.7108 -5.1057 0.0 0
M  V30 52 C -10.88 -6.7149 0.0 0
M  V30 53 C -10.3041 -4.1921 0.0 0
M  V30 54 C -11.689 -5.3136 0.0 0
M  V30 55 C -11.7935 -6.3081 0.0 0
M  V30 56 O -9.3096 -4.0876 0.0 0
M  V30 57 C -10.8919 -3.3831 0.0 0 CFG=1
M  V30 58 N -10.4852 -2.4696 0.0 0
M  V30 59 C -11.8864 -3.4877 0.0 0
M  V30 60 C -11.0729 -1.6606 0.0 0
M  V30 61 C -12.4742 -2.6786 0.0 0
M  V30 62 C -12.2931 -4.4012 0.0 0
M  V30 63 O -12.0675 -1.7651 0.0 0
M  V30 64 O -10.6662 -0.747 0.0 0
M  V30 65 C -11.254 0.0619 0.0 0
M  V30 END ATOM
M  V30 BEGIN BOND
M  V30 1 2 1 2
M  V30 2 1 2 3
M  V30 3 1 2 4
M  V30 4 1 3 5
M  V30 5 1 6 4 CFG=3
M  V30 6 1 6 7
M  V30 7 1 6 8
M  V30 8 2 7 9
M  V30 9 1 7 10
M  V30 10 1 8 11
M  V30 11 1 8 12
M  V30 12 1 13 10
M  V30 13 1 10 14
M  V30 14 1 13 15 CFG=3
M  V30 15 1 13 16
M  V30 16 1 14 17
M  V30 17 2 15 18
M  V30 18 1 15 19
M  V30 19 1 18 20
M  V30 20 1 19 21
M  V30 21 1 20 22
M  V30 22 2 22 23
M  V30 23 1 22 24
M  V30 24 1 23 25
M  V30 25 2 24 26
M  V30 26 1 25 27
M  V30 27 2 25 28
M  V30 28 1 29 27
M  V30 29 1 28 30
M  V30 30 1 29 31
M  V30 31 1 29 32 CFG=3
M  V30 32 2 30 33
M  V30 33 1 31 34
M  V30 34 2 32 35
M  V30 35 1 32 36
M  V30 36 1 33 37
M  V30 37 1 34 38
M  V30 38 1 35 39
M  V30 39 2 36 40
M  V30 40 1 37 41
M  V30 41 2 38 42
M  V30 42 2 39 43
M  V30 43 2 41 44
M  V30 44 1 44 45
M  V30 45 1 45 46
M  V30 46 2 45 47
M  V30 47 2 46 48
M  V30 48 1 47 49
M  V30 49 1 50 48 CFG=3
M  V30 50 1 50 51
M  V30 51 1 50 52
M  V30 52 1 51 53
M  V30 53 1 51 54
M  V30 54 1 52 55
M  V30 55 2 53 56
M  V30 56 1 57 53
M  V30 57 1 57 58 CFG=3
M  V30 58 1 57 59
M  V30 59 1 58 60
M  V30 60 1 59 61
M  V30 61 1 59 62
M  V30 62 2 60 63
M  V30 63 1 60 64
M  V30 64 1 64 65
M  V30 65 1 16 17
M  V30 66 2 20 21
M  V30 67 1 26 28
M  V30 68 1 30 31
M  V30 69 2 34 37
M  V30 70 1 40 43
M  V30 71 1 42 44
M  V30 72 1 48 49
M  V30 73 1 54 55
M  V30 END BOND
M  V30 BEGIN COLLECTION
M  V30 MDLV30/STERAC1 ATOMS=(5 6 13 29 50 57)
M  V30 END COLLECTION
M  V30 END CTAB
M  END
>  <Molecule Name>
_c001

>  <status>
-

>  <cas>
1370468-36-2

>  <name>
ELBASVIR

>  <ID>
1815

>  <Smiles>
CC(C)[C@@H](C(N(CCC1)[C@@H]1c1nc(-c(cc2)cc3c2n([C@H](c2ccccc2)Oc2c-4ccc(-c5c[nH]c([C@H](CCC6)N6C([C@H](C(C)C)NC(OC)=O)=O)n5)c2)c4c3)c[nH]1)=O)NC(OC)=O

$$$$
_c001
Actelion Java MolfileCreator 2.0

  0  0  0  0  0  0              0 V3000
M  V30 BEGIN CTAB
M  V30 COUNTS 54 60 0 0 0
M  V30 BEGIN ATOM
M  V30 1 S -3.2247 -3.4567 0.0 0
M  V30 2 O -3.2247 -4.4567 0.0 0
M  V30 3 O -2.3587 -3.9567 0.0 0
M  V30 4 N -2.7247 -2.5907 0.0 0
M  V30 5 C -4.2247 -3.4567 0.0 0
M  V30 6 C -1.7247 -2.5907 0.0 0
M  V30 7 C -5.0907 -2.9567 0.0 0
M  V30 8 C -5.0907 -3.9567 0.0 0
M  V30 9 O -1.2247 -3.4567 0.0 0
M  V30 10 C -1.2247 -1.7247 0.0 0 CFG=1
M  V30 11 N -0.5176 -2.4318 0.0 0
M  V30 12 C -1.2247 -0.7247 0.0 0 CFG=2
M  V30 13 C -0.3587 -1.2247 0.0 0
M  V30 14 C 0.4482 -2.173 0.0 0
M  V30 15 C -1.7247 0.1412 0.0 0
M  V30 16 O 0.7071 -1.2071 0.0 0
M  V30 17 C 1.1553 -2.8801 0.0 0 CFG=2
M  V30 18 C -1.2247 1.0073 0.0 0
M  V30 19 N 2.143 -2.7237 0.0 0
M  V30 20 C 0.9989 -3.8678 0.0 0
M  V30 21 C 2.8102 -1.8948 0.0 0
M  V30 22 C 2.597 -3.6147 0.0 0
M  V30 23 C 1.8899 -4.3218 0.0 0 CFG=1
M  V30 24 O 2.4504 -0.9617 0.0 0
M  V30 25 C 3.7979 -2.0512 0.0 0 CFG=2
M  V30 26 O 2.0183 -5.3162 0.0 0
M  V30 27 N 4.4272 -1.2741 0.0 0
M  V30 28 C 4.1562 -2.9848 0.0 0
M  V30 29 C 3.256 -5.4727 0.0 0
M  V30 30 C 5.4149 -1.4305 0.0 0
M  V30 31 C 5.0898 -2.6264 0.0 0
M  V30 32 C 4.5146 -3.9184 0.0 0
M  V30 33 C 3.2226 -3.3432 0.0 0
M  V30 34 N 2.3455 -5.2 0.0 0
M  V30 35 C 3.6143 -6.4062 0.0 0
M  V30 36 O 6.0442 -0.6534 0.0 0
M  V30 37 O 5.7732 -2.3641 0.0 0
M  V30 38 C 1.6389 -6.0934 0.0 0
M  V30 39 N 2.985 -7.1834 0.0 0
M  V30 40 C 4.602 -6.5627 0.0 0
M  V30 41 C 6.7609 -2.5205 0.0 0 CFG=2
M  V30 42 C 1.9973 -7.027 0.0 0
M  V30 43 C 0.6513 -5.9369 0.0 0
M  V30 44 C 5.2313 -5.7855 0.0 0
M  V30 45 C 7.1193 -3.4541 0.0 0 CFG=2
M  V30 46 C 7.7486 -2.677 0.0 0
M  V30 47 C 1.368 -7.8041 0.0 0
M  V30 48 C 0.0219 -6.7141 0.0 0
M  V30 49 C 6.219 -5.942 0.0 0
M  V30 50 C 6.49 -4.2312 0.0 0
M  V30 51 C 0.3803 -7.6477 0.0 0
M  V30 52 O -0.9656 -6.5577 0.0 0
M  V30 53 C 6.8483 -5.1648 0.0 0
M  V30 54 C -1.595 -7.3348 0.0 0
M  V30 END ATOM
M  V30 BEGIN BOND
M  V30 1 2 1 2
M  V30 2 2 1 3
M  V30 3 1 1 4
M  V30 4 1 1 5
M  V30 5 1 4 6
M  V30 6 1 5 7
M  V30 7 1 5 8
M  V30 8 2 6 9
M  V30 9 1 10 6
M  V30 10 1 10 11 CFG=3
M  V30 11 1 12 10
M  V30 12 1 10 13
M  V30 13 1 11 14
M  V30 14 1 12 15 CFG=1
M  V30 15 2 14 16
M  V30 16 1 17 14 CFG=3
M  V30 17 2 15 18
M  V30 18 1 17 19
M  V30 19 1 17 20
M  V30 20 1 19 21
M  V30 21 1 19 22
M  V30 22 1 23 20
M  V30 23 2 21 24
M  V30 24 1 25 21
M  V30 25 1 23 26 CFG=1
M  V30 26 1 25 27
M  V30 27 1 25 28 CFG=3
M  V30 28 1 26 29
M  V30 29 1 27 30
M  V30 30 1 28 31
M  V30 31 1 28 32
M  V30 32 1 28 33
M  V30 33 2 29 34
M  V30 34 1 29 35
M  V30 35 2 30 36
M  V30 36 1 30 37
M  V30 37 1 34 38
M  V30 38 2 35 39
M  V30 39 1 35 40
M  V30 40 1 41 37
M  V30 41 1 38 42
M  V30 42 2 38 43
M  V30 43 1 40 44
M  V30 44 1 45 41
M  V30 45 1 41 46 CFG=1
M  V30 46 2 42 47
M  V30 47 1 43 48
M  V30 48 1 44 49
M  V30 49 1 45 50
M  V30 50 1 47 51
M  V30 51 1 48 52
M  V30 52 1 49 53
M  V30 53 1 52 54
M  V30 54 1 7 8
M  V30 55 1 12 13
M  V30 56 1 22 23
M  V30 57 1 39 42
M  V30 58 1 45 46 CFG=3
M  V30 59 2 48 51
M  V30 60 1 50 53
M  V30 END BOND
M  V30 BEGIN COLLECTION
M  V30 MDLV30/STERAC1 ATOMS=(7 10 12 17 23 25 41 45)
M  V30 END COLLECTION
M  V30 END CTAB
M  END
>  <Molecule Name>
_c001

>  <status>
-

>  <cas>
1350514-68-9

>  <name>
GRAZOPREVIR

>  <ID>
1816

>  <Smiles>
CC(C)(C)[C@H](C(N(C[C@H](C1)Oc2nc3cc(OC)ccc3nc2CCCCC[C@@H](C2)[C@H]2O2)[C@H]1C(N[C@@](C1)([C@H]1C=C)C(NS(C1CC1)(=O)=O)=O)=O)=O)NC2=O

$$$$
_c001
Actelion Java MolfileCreator 2.0

  0  0  0  0  0  0              0 V3000
M  V30 BEGIN CTAB
M  V30 COUNTS 12 12 0 0 0
M  V30 BEGIN ATOM
M  V30 1 O 3.4641 -0.5 0.0 0
M  V30 2 C 2.598 0.0 0.0 0 CFG=2
M  V30 3 C 2.598 1.0 0.0 0
M  V30 4 C 1.732 -0.5 0.0 0 CFG=1
M  V30 5 C 3.4641 1.5 0.0 0
M  V30 6 C 1.732 1.4999 0.0 0
M  V30 7 N 0.866 0.0 0.0 0
M  V30 8 C 1.732 -1.5 0.0 0
M  V30 9 C 3.4641 2.5 0.0 0
M  V30 10 C 1.732 2.5 0.0 0
M  V30 11 C 0.0 -0.5 0.0 0
M  V30 12 C 2.598 3.0 0.0 0
M  V30 END ATOM
M  V30 BEGIN BOND
M  V30 1 1 2 1 CFG=1
M  V30 2 1 2 3
M  V30 3 1 4 2
M  V30 4 2 3 5
M  V30 5 1 3 6
M  V30 6 1 4 7 CFG=3
M  V30 7 1 4 8
M  V30 8 1 5 9
M  V30 9 2 6 10
M  V30 10 1 7 11
M  V30 11 2 9 12
M  V30 12 1 10 12
M  V30 END BOND
M  V30 BEGIN COLLECTION
M  V30 MDLV30/STERAC1 ATOMS=(2 2 4)
M  V30 END COLLECTION
M  V30 END CTAB
M  END
>  <Molecule Name>
_c001

>  <status>
-

>  <cas>
299-42-3

>  <name>
EPHEDRINE

>  <ID>
1817

>  <Smiles>
C[C@@H]([C@@H](c1ccccc1)O)NC

$$$$
_c001
Actelion Java MolfileCreator 2.0

  0  0  0  0  0  0              0 V3000
M  V30 BEGIN CTAB
M  V30 COUNTS 65 73 0 0 0
M  V30 BEGIN ATOM
M  V30 1 O 5.1961 -2.25 0.0 0
M  V30 2 C 5.1961 -0.75 0.0 0
M  V30 3 O 6.4951 0.0 0.0 0
M  V30 4 N 3.8971 0.0 0.0 0
M  V30 5 C 7.7942 -0.75 0.0 0
M  V30 6 C 2.598 -0.75 0.0 0 CFG=2
M  V30 7 C 2.598 -2.25 0.0 0
M  V30 8 C 1.299 0.0 0.0 0
M  V30 9 C 1.299 -3.0 0.0 0
M  V30 10 C 3.8971 -3.0 0.0 0
M  V30 11 O 1.299 1.5 0.0 0
M  V30 12 N 0.0 -0.75 0.0 0
M  V30 13 C 1.299 -4.5 0.0 0
M  V30 14 C 3.8971 -4.5 0.0 0
M  V30 15 C -1.3703 -0.1398 0.0 0 CFG=2
M  V30 16 C -0.1567 -2.2417 0.0 0
M  V30 17 C 2.598 -5.25 0.0 0
M  V30 18 C -1.6821 1.3273 0.0 0
M  V30 19 C -2.374 -1.2546 0.0 0
M  V30 20 C -1.624 -2.5536 0.0 0 CFG=2
M  V30 21 N -0.6784 2.442 0.0 0
M  V30 22 N -3.0525 1.9374 0.0 0
M  V30 23 C -2.2341 -3.9239 0.0 0
M  V30 24 C -1.4284 3.741 0.0 0
M  V30 25 C -2.8957 3.4292 0.0 0
M  V30 26 O -3.7259 -4.0807 0.0 0
M  V30 27 C -4.0104 4.4329 0.0 0
M  V30 28 C -4.336 -5.451 0.0 0
M  V30 29 C -3.6985 5.9001 0.0 0
M  V30 30 C -5.437 3.9693 0.0 0
M  V30 31 C -4.8132 6.9038 0.0 0
M  V30 32 C -6.5517 4.973 0.0 0
M  V30 33 C -6.2398 6.4403 0.0 0
M  V30 34 C -4.5014 8.371 0.0 0
M  V30 35 C -7.3545 7.4439 0.0 0
M  V30 36 O -5.6161 9.3747 0.0 0
M  V30 37 C -7.0427 8.9112 0.0 0
M  V30 38 C -8.7811 6.9804 0.0 0
M  V30 39 C -8.1574 9.9149 0.0 0
M  V30 40 C -9.8958 7.9841 0.0 0
M  V30 41 C -9.584 9.4513 0.0 0
M  V30 42 C -11.3224 7.5206 0.0 0
M  V30 43 C -10.6987 10.455 0.0 0
M  V30 44 C -12.4371 8.5243 0.0 0
M  V30 45 N -10.6987 11.955 0.0 0
M  V30 46 C -12.1253 9.9915 0.0 0
M  V30 47 C -12.1253 12.4186 0.0 0
M  V30 48 N -13.0069 11.205 0.0 0
M  V30 49 C -12.5888 13.8451 0.0 0 CFG=1
M  V30 50 N -14.0154 14.3087 0.0 0
M  V30 51 C -11.7071 15.0587 0.0 0
M  V30 52 C -15.2289 13.427 0.0 0
M  V30 53 C -14.0154 15.8087 0.0 0 CFG=2
M  V30 54 C -12.5888 16.2722 0.0 0
M  V30 55 O -15.0721 11.9352 0.0 0
M  V30 56 C -16.5992 14.0371 0.0 0 CFG=1
M  V30 57 C -15.2289 16.6903 0.0 0
M  V30 58 N -16.756 15.5289 0.0 0
M  V30 59 C -17.8127 13.1554 0.0 0
M  V30 60 C -18.1263 16.139 0.0 0
M  V30 61 C -19.1831 13.7655 0.0 0
M  V30 62 C -17.656 11.6636 0.0 0
M  V30 63 O -19.3399 15.2573 0.0 0
M  V30 64 O -18.2831 17.6308 0.0 0
M  V30 65 C -19.6534 18.2409 0.0 0
M  V30 END ATOM
M  V30 BEGIN BOND
M  V30 1 2 1 2
M  V30 2 1 2 3
M  V30 3 1 2 4
M  V30 4 1 3 5
M  V30 5 1 6 4 CFG=3
M  V30 6 1 6 7
M  V30 7 1 6 8
M  V30 8 2 7 9
M  V30 9 1 7 10
M  V30 10 2 8 11
M  V30 11 1 8 12
M  V30 12 1 9 13
M  V30 13 2 10 14
M  V30 14 1 15 12
M  V30 15 1 12 16
M  V30 16 2 13 17
M  V30 17 1 15 18 CFG=1
M  V30 18 1 15 19
M  V30 19 1 20 16
M  V30 20 2 18 21
M  V30 21 1 18 22
M  V30 22 1 20 23 CFG=1
M  V30 23 1 21 24
M  V30 24 1 22 25
M  V30 25 1 23 26
M  V30 26 1 25 27
M  V30 27 1 26 28
M  V30 28 2 27 29
M  V30 29 1 27 30
M  V30 30 1 29 31
M  V30 31 2 30 32
M  V30 32 2 31 33
M  V30 33 1 31 34
M  V30 34 1 33 35
M  V30 35 1 34 36
M  V30 36 1 35 37
M  V30 37 2 35 38
M  V30 38 2 37 39
M  V30 39 1 38 40
M  V30 40 1 39 41
M  V30 41 2 40 42
M  V30 42 2 41 43
M  V30 43 1 42 44
M  V30 44 1 43 45
M  V30 45 1 43 46
M  V30 46 1 45 47
M  V30 47 1 46 48
M  V30 48 1 49 47 CFG=1
M  V30 49 1 49 50
M  V30 50 1 49 51
M  V30 51 1 50 52
M  V30 52 1 53 50
M  V30 53 1 51 54
M  V30 54 2 52 55
M  V30 55 1 56 52
M  V30 56 1 53 57 CFG=1
M  V30 57 1 56 58 CFG=3
M  V30 58 1 56 59
M  V30 59 1 58 60
M  V30 60 1 59 61
M  V30 61 1 59 62
M  V30 62 2 60 63
M  V30 63 1 60 64
M  V30 64 1 64 65
M  V30 65 1 14 17
M  V30 66 1 19 20
M  V30 67 2 24 25
M  V30 68 1 32 33
M  V30 69 1 36 37
M  V30 70 1 40 41
M  V30 71 2 44 46
M  V30 72 2 47 48
M  V30 73 1 53 54
M  V30 END BOND
M  V30 BEGIN COLLECTION
M  V30 MDLV30/STERAC1 ATOMS=(6 6 15 20 49 53 56)
M  V30 END COLLECTION
M  V30 END CTAB
M  END
>  <Molecule Name>
_c001

>  <status>
-

>  <cas>
1377049-84-7

>  <name>
VELPATASVIR

>  <ID>
1818

>  <Smiles>
CC(C)[C@@H](C(N([C@@H](C)CC1)[C@@H]1c1nc2ccc(cc(-c(cc3)c(CO4)cc3-c3cnc([C@H](C[C@H](COC)C5)N5C([C@@H](c5ccccc5)NC(OC)=O)=O)[nH]3)c4c3)c3c2[nH]1)=O)NC(OC)=O

$$$$
_c001
Actelion Java MolfileCreator 2.0

  0  0  0  0  0  0              0 V3000
M  V30 BEGIN CTAB
M  V30 COUNTS 36 41 0 0 0
M  V30 BEGIN ATOM
M  V30 1 O 2.598 -5.25 0.0 0
M  V30 2 C 3.8971 -4.5 0.0 0
M  V30 3 C 3.8971 -3.0 0.0 0
M  V30 4 C 5.1961 -5.25 0.0 0
M  V30 5 C 5.1961 -2.25 0.0 0
M  V30 6 C 2.598 -2.25 0.0 0
M  V30 7 C 5.508 -6.7172 0.0 0
M  V30 8 C 6.4951 -4.5 0.0 0
M  V30 9 C 5.1961 -0.75 0.0 0
M  V30 10 C 6.4951 -3.0 0.0 0
M  V30 11 C 2.598 -0.75 0.0 0
M  V30 12 C 6.9998 -6.874 0.0 0
M  V30 13 C 4.6263 -7.9307 0.0 0
M  V30 14 N 7.6099 -5.5037 0.0 0
M  V30 15 C 3.8971 0.0 0.0 0
M  V30 16 C 7.9951 -3.0 0.0 0
M  V30 17 C 7.2451 -1.7009 0.0 0
M  V30 18 C 1.299 0.0 0.0 0
M  V30 19 C 7.6099 -8.2443 0.0 0
M  V30 20 C 5.2364 -9.301 0.0 0
M  V30 21 N 3.8971 1.5 0.0 0
M  V30 22 C 0.0 -0.75 0.0 0
M  V30 23 C 6.7282 -9.4578 0.0 0
M  V30 24 C 5.1961 2.25 0.0 0
M  V30 25 C 2.598 2.25 0.0 0
M  V30 26 C 7.3383 -10.8281 0.0 0
M  V30 27 C 5.1961 3.75 0.0 0
M  V30 28 C 2.598 3.75 0.0 0
M  V30 29 N 7.9484 -12.1985 0.0 0
M  V30 30 C 3.8971 4.5 0.0 0
M  V30 31 N 3.8971 6.0 0.0 0
M  V30 32 C 5.1961 6.75 0.0 0
M  V30 33 C 2.598 6.75 0.0 0
M  V30 34 C 5.1961 8.25 0.0 0
M  V30 35 C 2.598 8.25 0.0 0
M  V30 36 O 3.8971 9.0 0.0 0
M  V30 END ATOM
M  V30 BEGIN BOND
M  V30 1 2 1 2
M  V30 2 1 2 3
M  V30 3 1 2 4
M  V30 4 2 3 5
M  V30 5 1 3 6
M  V30 6 1 4 7
M  V30 7 2 4 8
M  V30 8 1 5 9
M  V30 9 1 5 10
M  V30 10 2 6 11
M  V30 11 2 7 12
M  V30 12 1 7 13
M  V30 13 1 8 14
M  V30 14 2 9 15
M  V30 15 1 10 16
M  V30 16 1 10 17
M  V30 17 1 11 18
M  V30 18 1 12 19
M  V30 19 2 13 20
M  V30 20 1 15 21
M  V30 21 1 18 22
M  V30 22 2 19 23
M  V30 23 1 21 24
M  V30 24 1 21 25
M  V30 25 1 23 26
M  V30 26 1 24 27
M  V30 27 1 25 28
M  V30 28 3 26 29
M  V30 29 1 27 30
M  V30 30 1 30 31
M  V30 31 1 31 32
M  V30 32 1 31 33
M  V30 33 1 32 34
M  V30 34 1 33 35
M  V30 35 1 34 36
M  V30 36 1 8 10
M  V30 37 1 11 15
M  V30 38 1 12 14
M  V30 39 1 20 23
M  V30 40 1 28 30
M  V30 41 1 35 36
M  V30 END BOND
M  V30 END CTAB
M  END
>  <Molecule Name>
_c001

>  <status>
-

>  <cas>
1256580-46-7

>  <name>
ALECTINIB

>  <ID>
1819

>  <Smiles>
CCc1cc(C(c2c(C3(C)C)[nH]c4c2ccc(C#N)c4)=O)c3cc1N(CC1)CCC1N1CCOCC1

$$$$
_c001
Actelion Java MolfileCreator 2.0

  0  0  0  0  0  0              0 V3000
M  V30 BEGIN CTAB
M  V30 COUNTS 23 23 0 0 0
M  V30 BEGIN ATOM
M  V30 1 Cl 6.9282 1.4999 0.0 0
M  V30 2 C 7.7942 1.0 0.0 0
M  V30 3 C 7.7942 0.0 0.0 0
M  V30 4 C 8.6602 1.4999 0.0 0
M  V30 5 C 6.9282 -0.5 0.0 0
M  V30 6 C 8.6602 -0.4999 0.0 0
M  V30 7 C 9.5262 1.0 0.0 0
M  V30 8 O 6.9282 -1.4999 0.0 0
M  V30 9 N 6.0621 0.0 0.0 0
M  V30 10 C 9.5262 0.0 0.0 0
M  V30 11 C 5.1961 -0.5 0.0 0
M  V30 12 Cl 10.3923 -0.5 0.0 0
M  V30 13 C 4.3301 0.0 0.0 0
M  V30 14 O 4.3301 1.0 0.0 0
M  V30 15 N 3.4641 -0.5 0.0 0
M  V30 16 C 2.598 0.0 0.0 0 CFG=2
M  V30 17 C 1.732 -0.5 0.0 0
M  V30 18 B 2.598 1.0 0.0 0
M  V30 19 C 0.866 0.0 0.0 0
M  V30 20 O 3.4641 1.4999 0.0 0
M  V30 21 O 1.732 1.5 0.0 0
M  V30 22 C 0.866 1.0 0.0 0
M  V30 23 C 0.0 -0.5 0.0 0
M  V30 END ATOM
M  V30 BEGIN BOND
M  V30 1 1 1 2
M  V30 2 2 2 3
M  V30 3 1 2 4
M  V30 4 1 3 5
M  V30 5 1 3 6
M  V30 6 2 4 7
M  V30 7 2 5 8
M  V30 8 1 5 9
M  V30 9 2 6 10
M  V30 10 1 9 11
M  V30 11 1 10 12
M  V30 12 1 11 13
M  V30 13 2 13 14
M  V30 14 1 13 15
M  V30 15 1 16 15 CFG=3
M  V30 16 1 16 17
M  V30 17 1 16 18
M  V30 18 1 17 19
M  V30 19 1 18 20
M  V30 20 1 18 21
M  V30 21 1 19 22
M  V30 22 1 19 23
M  V30 23 1 7 10
M  V30 END BOND
M  V30 BEGIN COLLECTION
M  V30 MDLV30/STERAC1 ATOMS=(1 16)
M  V30 END COLLECTION
M  V30 END CTAB
M  END
>  <Molecule Name>
_c001

>  <status>
-

>  <cas>
1072833-77-2

>  <name>
IXAZOMIB

>  <ID>
1820

>  <Smiles>
CC(C)CC(B(O)O)NC(CNC(c(cc(cc1)Cl)c1Cl)=O)=O

$$$$
_c001
Actelion Java MolfileCreator 2.0

  0  0  0  0  0  0              0 V3000
M  V30 BEGIN CTAB
M  V30 COUNTS 34 35 0 0 0
M  V30 BEGIN ATOM
M  V30 1 Cl 6.9282 1.4999 0.0 0
M  V30 2 C 7.7942 1.0 0.0 0
M  V30 3 C 7.7942 0.0 0.0 0
M  V30 4 C 8.6602 1.4999 0.0 0
M  V30 5 C 6.9282 -0.5 0.0 0
M  V30 6 C 8.6602 -0.4999 0.0 0
M  V30 7 C 9.5262 1.0 0.0 0
M  V30 8 O 6.9282 -1.4999 0.0 0
M  V30 9 N 6.0621 0.0 0.0 0
M  V30 10 C 9.5262 0.0 0.0 0
M  V30 11 C 5.1961 -0.5 0.0 0
M  V30 12 Cl 10.3923 -0.5 0.0 0
M  V30 13 C 4.3301 0.0 0.0 0
M  V30 14 O 4.3301 1.0 0.0 0
M  V30 15 N 3.4641 -0.5 0.0 0
M  V30 16 C 2.598 0.0 0.0 0 CFG=2
M  V30 17 C 1.732 -0.5 0.0 0
M  V30 18 B 2.598 1.0 0.0 0
M  V30 19 C 0.866 0.0 0.0 0
M  V30 20 O 3.407 1.5877 0.0 0
M  V30 21 O 1.789 1.5877 0.0 0
M  V30 22 C 0.866 1.0 0.0 0
M  V30 23 C 0.0 -0.5 0.0 0
M  V30 24 C 3.098 2.5388 0.0 0
M  V30 25 C 2.098 2.5388 0.0 0
M  V30 26 O 3.6858 3.3478 0.0 0
M  V30 27 C 1.5102 3.3478 0.0 0
M  V30 28 C 2.552 3.4298 0.0 0
M  V30 29 C 0.5157 3.2433 0.0 0
M  V30 30 C 2.0074 4.2685 0.0 0
M  V30 31 O -0.072 4.0523 0.0 0
M  V30 32 O 0.109 2.3297 0.0 0 CHG=-1
M  V30 33 O 1.0087 4.2161 0.0 0
M  V30 34 O 2.4614 5.1595 0.0 0 CHG=-1
M  V30 END ATOM
M  V30 BEGIN BOND
M  V30 1 1 1 2
M  V30 2 2 2 3
M  V30 3 1 2 4
M  V30 4 1 3 5
M  V30 5 1 3 6
M  V30 6 2 4 7
M  V30 7 2 5 8
M  V30 8 1 5 9
M  V30 9 2 6 10
M  V30 10 1 9 11
M  V30 11 1 10 12
M  V30 12 1 11 13
M  V30 13 2 13 14
M  V30 14 1 13 15
M  V30 15 1 16 15 CFG=3
M  V30 16 1 16 17
M  V30 17 1 16 18
M  V30 18 1 17 19
M  V30 19 1 18 20
M  V30 20 1 18 21
M  V30 21 1 19 22
M  V30 22 1 19 23
M  V30 23 1 20 24
M  V30 24 1 21 25
M  V30 25 2 24 26
M  V30 26 1 25 27
M  V30 27 1 25 28
M  V30 28 1 27 29
M  V30 29 1 28 30
M  V30 30 2 29 31
M  V30 31 1 29 32
M  V30 32 2 30 33
M  V30 33 1 30 34
M  V30 34 1 7 10
M  V30 35 1 24 25
M  V30 END BOND
M  V30 BEGIN COLLECTION
M  V30 MDLV30/STERAC1 ATOMS=(1 16)
M  V30 END COLLECTION
M  V30 END CTAB
M  END
>  <Molecule Name>
_c001

>  <status>
-

>  <cas>
1239908-20-3

>  <name>
IXAZOMIB CITRATE

>  <ID>
1821

>  <Smiles>
CC(C)CC(B(OC1(CC([O-])=O)CC([O-])=O)OC1=O)NC(CNC(c(cc(cc1)Cl)c1Cl)=O)=O

$$$$
_c001
Actelion Java MolfileCreator 2.0

  0  0  0  0  0  0              0 V3000
M  V30 BEGIN CTAB
M  V30 COUNTS 61 68 0 0 0
M  V30 BEGIN ATOM
M  V30 1 Cl 19.4855 -4.5 0.0 0
M  V30 2 C 18.1865 -5.25 0.0 0
M  V30 3 C 16.8875 -4.5 0.0 0
M  V30 4 C 18.1865 -6.75 0.0 0
M  V30 5 C 15.5884 -5.25 0.0 0
M  V30 6 C 16.8875 -7.5 0.0 0
M  V30 7 C 15.5884 -6.75 0.0 0
M  V30 8 C 14.2894 -7.5 0.0 0
M  V30 9 C 12.9903 -6.75 0.0 0
M  V30 10 C 14.2894 -9.0 0.0 0
M  V30 11 C 11.6913 -7.5 0.0 0
M  V30 12 C 12.9903 -5.25 0.0 0
M  V30 13 C 12.9903 -9.75 0.0 0
M  V30 14 C 11.6913 -9.0 0.0 0
M  V30 15 N 11.6913 -4.5 0.0 0
M  V30 16 C 12.2403 -11.049 0.0 0
M  V30 17 C 13.7403 -11.049 0.0 0
M  V30 18 C 11.6913 -3.0 0.0 0
M  V30 19 C 10.3923 -5.25 0.0 0
M  V30 20 C 10.3923 -2.25 0.0 0
M  V30 21 C 9.0932 -4.5 0.0 0
M  V30 22 N 9.0932 -3.0 0.0 0
M  V30 23 C 7.7942 -2.25 0.0 0
M  V30 24 C 7.7942 -0.75 0.0 0
M  V30 25 C 6.4951 -3.0 0.0 0
M  V30 26 C 6.4951 0.0 0.0 0
M  V30 27 C 5.1961 -2.25 0.0 0
M  V30 28 O 6.4951 1.5 0.0 0
M  V30 29 C 5.1961 -0.75 0.0 0
M  V30 30 C 7.7942 2.25 0.0 0
M  V30 31 C 3.8971 0.0 0.0 0
M  V30 32 C 7.7942 3.75 0.0 0
M  V30 33 C 9.0932 1.5 0.0 0
M  V30 34 O 2.598 -0.75 0.0 0
M  V30 35 N 3.8971 1.5 0.0 0
M  V30 36 N 9.0932 4.5 0.0 0
M  V30 37 C 10.3923 2.25 0.0 0
M  V30 38 S 2.598 2.25 0.0 0
M  V30 39 C 10.3923 3.75 0.0 0
M  V30 40 C 11.8189 1.7864 0.0 0
M  V30 41 O 1.8481 0.9509 0.0 0
M  V30 42 O 1.0981 2.25 0.0 0
M  V30 43 C 2.598 3.75 0.0 0
M  V30 44 N 11.8189 4.2135 0.0 0
M  V30 45 C 12.7005 3.0 0.0 0
M  V30 46 C 1.299 4.5 0.0 0
M  V30 47 C 3.8971 4.5 0.0 0
M  V30 48 C 1.299 6.0 0.0 0
M  V30 49 C 3.8971 6.0 0.0 0
M  V30 50 N 0.0 6.75 0.0 0 CHG=1
M  V30 51 C 2.598 6.75 0.0 0
M  V30 52 O -1.299 6.0 0.0 0
M  V30 53 O 0.0 8.25 0.0 0 CHG=-1
M  V30 54 N 2.598 8.25 0.0 0
M  V30 55 C 1.299 9.0 0.0 0
M  V30 56 C 1.299 10.5 0.0 0
M  V30 57 C 0.0 11.25 0.0 0
M  V30 58 C 2.598 11.25 0.0 0
M  V30 59 C 0.0 12.75 0.0 0
M  V30 60 C 2.598 12.75 0.0 0
M  V30 61 O 1.299 13.5 0.0 0
M  V30 END ATOM
M  V30 BEGIN BOND
M  V30 1 1 1 2
M  V30 2 2 2 3
M  V30 3 1 2 4
M  V30 4 1 3 5
M  V30 5 2 4 6
M  V30 6 2 5 7
M  V30 7 1 7 8
M  V30 8 2 8 9
M  V30 9 1 8 10
M  V30 10 1 9 11
M  V30 11 1 9 12
M  V30 12 1 10 13
M  V30 13 1 11 14
M  V30 14 1 12 15
M  V30 15 1 13 16
M  V30 16 1 13 17
M  V30 17 1 15 18
M  V30 18 1 15 19
M  V30 19 1 18 20
M  V30 20 1 19 21
M  V30 21 1 20 22
M  V30 22 1 22 23
M  V30 23 2 23 24
M  V30 24 1 23 25
M  V30 25 1 24 26
M  V30 26 2 25 27
M  V30 27 1 26 28
M  V30 28 2 26 29
M  V30 29 1 28 30
M  V30 30 1 29 31
M  V30 31 2 30 32
M  V30 32 1 30 33
M  V30 33 2 31 34
M  V30 34 1 31 35
M  V30 35 1 32 36
M  V30 36 2 33 37
M  V30 37 1 35 38
M  V30 38 2 36 39
M  V30 39 1 37 40
M  V30 40 2 38 41
M  V30 41 2 38 42
M  V30 42 1 38 43
M  V30 43 1 39 44
M  V30 44 2 40 45
M  V30 45 2 43 46
M  V30 46 1 43 47
M  V30 47 1 46 48
M  V30 48 2 47 49
M  V30 49 1 48 50
M  V30 50 2 48 51
M  V30 51 2 50 52
M  V30 52 1 50 53
M  V30 53 1 51 54
M  V30 54 1 54 55
M  V30 55 1 55 56
M  V30 56 1 56 57
M  V30 57 1 56 58
M  V30 58 1 57 59
M  V30 59 1 58 60
M  V30 60 1 59 61
M  V30 61 1 6 7
M  V30 62 1 13 14
M  V30 63 1 21 22
M  V30 64 1 27 29
M  V30 65 1 37 39
M  V30 66 1 44 45
M  V30 67 1 49 51
M  V30 68 1 60 61
M  V30 END BOND
M  V30 END CTAB
M  END
>  <Molecule Name>
_c001

>  <status>
-

>  <cas>
1257044-40-8

>  <name>
VENETOCLAX

>  <ID>
1822

>  <Smiles>
CC1(C)CC(c(cc2)ccc2Cl)=C(CN(CC2)CCN2c(cc2)cc(Oc3cnc4[nH]ccc4c3)c2C(NS(c(cc2)cc([N+]([O-])=O)c2NCC2CCOCC2)(=O)=O)=O)CC1

$$$$

Actelion Java MolfileCreator 2.0

  0  0  0  0  0  0              0 V3000
M  V30 BEGIN CTAB
M  V30 COUNTS 19 21 0 0 0
M  V30 BEGIN ATOM
M  V30 1 O 5.0029 -0.9999 0.0 0
M  V30 2 C 4.4151 -0.1909 0.0 0
M  V30 3 B 4.4151 -1.809 0.0 0
M  V30 4 C 3.4641 -0.4999 0.0 0
M  V30 5 O 4.7241 -2.76 0.0 0
M  V30 6 C 3.4641 -1.4999 0.0 0
M  V30 7 C 2.598 0.0 0.0 0
M  V30 8 C 2.598 -2.0 0.0 0
M  V30 9 C 1.732 -0.5 0.0 0
M  V30 10 C 1.732 -1.4999 0.0 0
M  V30 11 O 0.866 0.0 0.0 0
M  V30 12 C 0.0 -0.5 0.0 0
M  V30 13 C -0.866 0.0 0.0 0
M  V30 14 C 0.0 -1.4999 0.0 0
M  V30 15 C -1.732 -0.4999 0.0 0
M  V30 16 C -0.866 -1.9999 0.0 0
M  V30 17 C -1.732 -1.4999 0.0 0
M  V30 18 C -2.598 -1.9999 0.0 0
M  V30 19 N -3.4641 -2.4999 0.0 0
M  V30 END ATOM
M  V30 BEGIN BOND
M  V30 1 1 1 2
M  V30 2 1 1 3
M  V30 3 1 2 4
M  V30 4 1 3 5
M  V30 5 1 3 6
M  V30 6 1 4 7
M  V30 7 1 6 8
M  V30 8 2 7 9
M  V30 9 2 8 10
M  V30 10 1 9 11
M  V30 11 1 11 12
M  V30 12 2 12 13
M  V30 13 1 12 14
M  V30 14 1 13 15
M  V30 15 2 14 16
M  V30 16 2 15 17
M  V30 17 1 17 18
M  V30 18 3 18 19
M  V30 19 2 4 6
M  V30 20 1 9 10
M  V30 21 1 16 17
M  V30 END BOND
M  V30 END CTAB
M  END
>  <Molecule Name>


>  <status>
-

>  <cas>
906673-24-3

>  <name>
CRISABOROLE

>  <ID>
1823

>  <Smiles>
N#Cc(cc1)ccc1Oc1cc(COB2O)c2cc1

$$$$

Actelion Java MolfileCreator 2.0

  0  0  0  0  0  0              0 V3000
M  V30 BEGIN CTAB
M  V30 COUNTS 41 45 0 0 0
M  V30 BEGIN ATOM
M  V30 1 Cl 3.4641 1.4999 0.0 0
M  V30 2 C 4.3301 1.0 0.0 0
M  V30 3 C 4.3301 0.0 0.0 0
M  V30 4 C 5.1961 1.5 0.0 0
M  V30 5 C 5.1961 -0.4999 0.0 0
M  V30 6 C 3.4641 -0.5 0.0 0
M  V30 7 C 6.0621 1.0 0.0 0
M  V30 8 C 5.1961 2.4999 0.0 0
M  V30 9 Cl 5.1961 -1.4999 0.0 0
M  V30 10 C 6.0621 0.0 0.0 0
M  V30 11 O 3.4641 -1.5 0.0 0
M  V30 12 N 2.598 0.0 0.0 0
M  V30 13 C 6.9282 1.5 0.0 0
M  V30 14 C 6.0621 3.0 0.0 0
M  V30 15 C 1.732 -0.5 0.0 0 CFG=2
M  V30 16 N 6.9282 2.5 0.0 0
M  V30 17 C 1.732 -1.5 0.0 0
M  V30 18 C 0.866 0.0 0.0 0
M  V30 19 C 7.7942 3.0 0.0 0
M  V30 20 O 0.866 -2.0 0.0 0
M  V30 21 O 2.598 -1.9999 0.0 0 CHG=-1
M  V30 22 C 0.0 -0.5 0.0 0
M  V30 23 O 8.6602 2.5 0.0 0
M  V30 24 C 7.7942 4.0 0.0 0
M  V30 25 C -0.866 0.0 0.0 0
M  V30 26 C 0.0 -1.4999 0.0 0
M  V30 27 C 8.6602 4.5 0.0 0
M  V30 28 C 6.9282 4.5 0.0 0
M  V30 29 C -1.732 -0.4999 0.0 0
M  V30 30 C -0.866 -1.9999 0.0 0
M  V30 31 C 8.6602 5.5 0.0 0
M  V30 32 C 6.9282 5.5 0.0 0
M  V30 33 S -2.598 0.0 0.0 0
M  V30 34 C -1.732 -1.4999 0.0 0
M  V30 35 O 9.4033 6.1691 0.0 0
M  V30 36 C 7.7942 6.0 0.0 0
M  V30 37 O -2.098 0.866 0.0 0
M  V30 38 O -3.098 -0.866 0.0 0
M  V30 39 C -3.4641 0.5 0.0 0
M  V30 40 C 8.9966 7.0826 0.0 0
M  V30 41 C 8.0021 6.9781 0.0 0
M  V30 END ATOM
M  V30 BEGIN BOND
M  V30 1 1 1 2
M  V30 2 2 2 3
M  V30 3 1 2 4
M  V30 4 1 3 5
M  V30 5 1 3 6
M  V30 6 2 4 7
M  V30 7 1 4 8
M  V30 8 1 5 9
M  V30 9 2 5 10
M  V30 10 2 6 11
M  V30 11 1 6 12
M  V30 12 1 7 13
M  V30 13 1 8 14
M  V30 14 1 15 12 CFG=3
M  V30 15 1 13 16
M  V30 16 1 15 17
M  V30 17 1 15 18
M  V30 18 1 16 19
M  V30 19 2 17 20
M  V30 20 1 17 21
M  V30 21 1 18 22
M  V30 22 2 19 23
M  V30 23 1 19 24
M  V30 24 2 22 25
M  V30 25 1 22 26
M  V30 26 2 24 27
M  V30 27 1 24 28
M  V30 28 1 25 29
M  V30 29 2 26 30
M  V30 30 1 27 31
M  V30 31 2 28 32
M  V30 32 1 29 33
M  V30 33 2 29 34
M  V30 34 1 31 35
M  V30 35 2 31 36
M  V30 36 2 33 37
M  V30 37 2 33 38
M  V30 38 1 33 39
M  V30 39 1 35 40
M  V30 40 1 36 41
M  V30 41 1 7 10
M  V30 42 1 14 16
M  V30 43 1 30 34
M  V30 44 1 32 36
M  V30 45 2 40 41
M  V30 END BOND
M  V30 BEGIN COLLECTION
M  V30 MDLV30/STERAC1 ATOMS=(1 15)
M  V30 END COLLECTION
M  V30 END CTAB
M  END
>  <Molecule Name>


>  <status>
-

>  <cas>
1025967-78-5

>  <name>
LIFITEGRAST

>  <ID>
1824

>  <Smiles>
CS(c1cccc(CC(C([O-])=O)NC(c(c(Cl)cc(C2)c3CCN2C(c2cc(occ4)c4cc2)=O)c3Cl)=O)c1)(=O)=O

$$$$

Actelion Java MolfileCreator 2.0

  0  0  0  0  0  0              0 V3000
M  V30 BEGIN CTAB
M  V30 COUNTS 21 24 0 0 0
M  V30 BEGIN ATOM
M  V30 1 O 1.299 0.0 0.0 0
M  V30 2 C 0.0 -0.75 0.0 0
M  V30 3 C -1.3703 -0.1398 0.0 0 CFG=1
M  V30 4 C -0.1567 -2.2417 0.0 0
M  V30 5 C -2.374 -1.2546 0.0 0 CFG=2
M  V30 6 C -1.8338 1.2866 0.0 0
M  V30 7 C -0.2556 0.8638 0.0 0
M  V30 8 C -1.624 -2.5536 0.0 0
M  V30 9 C -3.8412 -0.9427 0.0 0 CFG=2
M  V30 10 C -3.301 1.5985 0.0 0
M  V30 11 C -4.3047 0.4838 0.0 0 CFG=1
M  V30 12 C -4.8449 -2.0574 0.0 0
M  V30 13 C -5.7719 0.7957 0.0 0 CFG=1
M  V30 14 C -6.3121 -1.7455 0.0 0
M  V30 15 C -6.7756 -0.319 0.0 0
M  V30 16 C -6.2355 2.2222 0.0 0
M  V30 17 C -4.7682 1.9104 0.0 0
M  V30 18 C -8.2428 -0.0071 0.0 0
M  V30 19 C -7.7027 2.5341 0.0 0
M  V30 20 C -8.7064 1.4194 0.0 0 CFG=1
M  V30 21 O -10.1736 1.7313 0.0 0
M  V30 END ATOM
M  V30 BEGIN BOND
M  V30 1 2 1 2
M  V30 2 1 3 2
M  V30 3 1 2 4
M  V30 4 1 5 3
M  V30 5 1 3 6
M  V30 6 1 3 7 CFG=3
M  V30 7 1 4 8
M  V30 8 1 9 5
M  V30 9 1 6 10
M  V30 10 1 11 9
M  V30 11 1 9 12 CFG=1
M  V30 12 1 13 11
M  V30 13 1 12 14
M  V30 14 1 13 15
M  V30 15 1 13 16
M  V30 16 1 13 17 CFG=3
M  V30 17 1 15 18
M  V30 18 1 16 19
M  V30 19 1 20 18
M  V30 20 1 20 21 CFG=3
M  V30 21 1 5 8 CFG=3
M  V30 22 1 11 10 CFG=3
M  V30 23 2 14 15
M  V30 24 1 19 20
M  V30 END BOND
M  V30 BEGIN COLLECTION
M  V30 MDLV30/STERAC1 ATOMS=(6 3 5 9 11 13 20)
M  V30 END COLLECTION
M  V30 END CTAB
M  END
>  <Molecule Name>


>  <status>
-

>  <cas>
53-43-0

>  <name>
PRASTERONE

>  <ID>
1825

>  <Smiles>
C[C@@](CC1)([C@H](CC2)[C@@H]3[C@@H]1[C@](C)(CC[C@H](C1)O)C1=CC3)C2=O

$$$$

Actelion Java MolfileCreator 2.0

  0  0  0  0  0  0              0 V3000
M  V30 BEGIN CTAB
M  V30 COUNTS 24 27 0 0 0
M  V30 BEGIN ATOM
M  V30 1 F 9.2788 2.7024 0.0 0
M  V30 2 C 8.2788 2.7024 0.0 0
M  V30 3 C 7.7788 3.5684 0.0 0
M  V30 4 C 7.7788 1.8364 0.0 0
M  V30 5 C 6.7788 3.5684 0.0 0
M  V30 6 C 6.7788 1.8364 0.0 0
M  V30 7 C 6.3703 4.4879 0.0 0
M  V30 8 C 6.2788 2.7024 0.0 0
M  V30 9 N 6.1096 1.0932 0.0 0
M  V30 10 O 7.0228 5.2456 0.0 0
M  V30 11 N 5.4063 4.7539 0.0 0
M  V30 12 C 5.3006 2.4945 0.0 0
M  V30 13 C 5.1961 1.5 0.0 0
M  V30 14 C 4.5973 4.1661 0.0 0
M  V30 15 C 4.5524 3.1671 0.0 0
M  V30 16 C 4.3301 1.0 0.0 0
M  V30 17 C 3.4641 1.5 0.0 0
M  V30 18 C 4.3301 0.0 0.0 0
M  V30 19 C 2.598 0.9999 0.0 0
M  V30 20 C 3.4641 -0.4999 0.0 0
M  V30 21 C 2.598 0.0 0.0 0
M  V30 22 C 1.732 -0.5 0.0 0
M  V30 23 N 0.866 0.0 0.0 0
M  V30 24 C 0.0 -0.5 0.0 0
M  V30 END ATOM
M  V30 BEGIN BOND
M  V30 1 1 1 2
M  V30 2 2 2 3
M  V30 3 1 2 4
M  V30 4 1 3 5
M  V30 5 2 4 6
M  V30 6 1 5 7
M  V30 7 2 5 8
M  V30 8 1 6 9
M  V30 9 2 7 10
M  V30 10 1 7 11
M  V30 11 1 8 12
M  V30 12 1 9 13
M  V30 13 1 11 14
M  V30 14 1 12 15
M  V30 15 1 13 16
M  V30 16 2 16 17
M  V30 17 1 16 18
M  V30 18 1 17 19
M  V30 19 2 18 20
M  V30 20 2 19 21
M  V30 21 1 21 22
M  V30 22 1 22 23
M  V30 23 1 23 24
M  V30 24 1 6 8
M  V30 25 2 12 13
M  V30 26 1 14 15
M  V30 27 1 20 21
M  V30 END BOND
M  V30 END CTAB
M  END
>  <Molecule Name>


>  <status>
-

>  <cas>
283173-50-2

>  <name>
RUCAPARIB

>  <ID>
1826

>  <Smiles>
CNCc(cc1)ccc1-c([nH]c1cc(F)c2)c(CCN3)c1c2C3=O

$$$$

Actelion Java MolfileCreator 2.0

  0  0  0  0  0  0              0 V3000
M  V30 BEGIN CTAB
M  V30 COUNTS 22 23 0 0 0
M  V30 BEGIN ATOM
M  V30 1 F 9.5262 3.9999 0.0 0
M  V30 2 C 9.5262 2.9999 0.0 0
M  V30 3 C 8.6602 2.4999 0.0 0
M  V30 4 C 10.3923 2.4999 0.0 0
M  V30 5 C 8.6602 1.4999 0.0 0
M  V30 6 C 10.3923 1.4999 0.0 0
M  V30 7 C 9.5262 0.9999 0.0 0
M  V30 8 C 7.7942 0.9999 0.0 0
M  V30 9 O 6.9282 1.4999 0.0 0
M  V30 10 C 6.0621 0.9999 0.0 0
M  V30 11 C 5.1961 1.4999 0.0 0
M  V30 12 C 6.0621 0.0 0.0 0
M  V30 13 C 4.3301 0.9999 0.0 0
M  V30 14 C 5.1961 -0.5 0.0 0
M  V30 15 C 4.3301 0.0 0.0 0
M  V30 16 C 3.4641 -0.5 0.0 0
M  V30 17 N 2.598 0.0 0.0 0
M  V30 18 C 1.732 -0.5 0.0 0 CFG=2
M  V30 19 C 0.866 0.0 0.0 0
M  V30 20 C 1.732 -1.5 0.0 0
M  V30 21 O 0.866 1.0 0.0 0
M  V30 22 N 0.0 -0.5 0.0 0
M  V30 END ATOM
M  V30 BEGIN BOND
M  V30 1 1 1 2
M  V30 2 2 2 3
M  V30 3 1 2 4
M  V30 4 1 3 5
M  V30 5 2 4 6
M  V30 6 2 5 7
M  V30 7 1 5 8
M  V30 8 1 8 9
M  V30 9 1 9 10
M  V30 10 2 10 11
M  V30 11 1 10 12
M  V30 12 1 11 13
M  V30 13 2 12 14
M  V30 14 2 13 15
M  V30 15 1 15 16
M  V30 16 1 16 17
M  V30 17 1 18 17 CFG=1
M  V30 18 1 18 19
M  V30 19 1 18 20
M  V30 20 2 19 21
M  V30 21 1 19 22
M  V30 22 1 6 7
M  V30 23 1 14 15
M  V30 END BOND
M  V30 BEGIN COLLECTION
M  V30 MDLV30/STERAC1 ATOMS=(1 18)
M  V30 END COLLECTION
M  V30 END CTAB
M  END
>  <Molecule Name>


>  <status>
-

>  <cas>
133865-89-1

>  <name>
SAFINAMIDE

>  <ID>
1827

>  <Smiles>
CC(C(N)=O)NCc(cc1)ccc1OCc1cccc(F)c1

$$$$

Actelion Java MolfileCreator 2.0

  0  0  0  0  0  0              0 V3000
M  V30 BEGIN CTAB
M  V30 COUNTS 43 51 0 0 0
M  V30 BEGIN ATOM
M  V30 1 O 9.1426 1.7461 0.0 0
M  V30 2 C 8.3994 2.4152 0.0 0
M  V30 3 N 8.504 3.4098 0.0 0
M  V30 4 C 7.4213 2.2073 0.0 0
M  V30 5 C 7.5904 3.8165 0.0 0
M  V30 6 C 6.9213 1.3413 0.0 0
M  V30 7 C 6.9213 3.0733 0.0 0
M  V30 8 C 5.9213 1.3413 0.0 0
M  V30 9 C 7.2303 0.3902 0.0 0
M  V30 10 C 5.9213 3.0733 0.0 0
M  V30 11 N 5.6123 0.3902 0.0 0
M  V30 12 C 5.4213 2.2073 0.0 0
M  V30 13 C 6.4213 -0.1974 0.0 0
M  V30 14 C 8.1439 -0.0164 0.0 0
M  V30 15 C 5.2522 3.8165 0.0 0
M  V30 16 C 4.3301 0.0 0.0 0 CFG=2
M  V30 17 N 4.4432 2.4152 0.0 0
M  V30 18 C 6.5258 -1.192 0.0 0
M  V30 19 C 8.2484 -1.0109 0.0 0
M  V30 20 C 4.3386 3.4098 0.0 0
M  V30 21 C 5.3567 4.811 0.0 0
M  V30 22 O 4.3301 0.9999 0.0 0
M  V30 23 C 3.4641 -0.5 0.0 0
M  V30 24 C 3.4641 1.4999 0.0 0 CFG=1
M  V30 25 C 7.4394 -1.5987 0.0 0
M  V30 26 C 3.5296 3.9975 0.0 0
M  V30 27 C 4.5477 5.3988 0.0 0
M  V30 28 C 2.598 0.0 0.0 0 CFG=2
M  V30 29 C 2.598 0.9999 0.0 0 CFG=1
M  V30 30 C 2.8687 2.3034 0.0 0
M  V30 31 C 3.6341 4.9921 0.0 0
M  V30 32 N 1.732 -0.5 0.0 0
M  V30 33 O 1.732 1.4999 0.0 0
M  V30 34 C 1.732 -1.5 0.0 0
M  V30 35 C 0.866 0.0 0.0 0
M  V30 36 C 0.866 0.9999 0.0 0
M  V30 37 O 2.598 -2.0 0.0 0
M  V30 38 C 0.866 -2.0 0.0 0
M  V30 39 C 0.866 -3.0 0.0 0
M  V30 40 C 0.0 -1.5 0.0 0
M  V30 41 C 0.0 -3.5 0.0 0
M  V30 42 C -0.866 -2.0 0.0 0
M  V30 43 C -0.866 -3.0 0.0 0
M  V30 END ATOM
M  V30 BEGIN BOND
M  V30 1 2 1 2
M  V30 2 1 2 3
M  V30 3 1 2 4
M  V30 4 1 3 5
M  V30 5 2 4 6
M  V30 6 1 4 7
M  V30 7 1 6 8
M  V30 8 1 6 9
M  V30 9 2 7 10
M  V30 10 1 8 11
M  V30 11 2 8 12
M  V30 12 2 9 13
M  V30 13 1 9 14
M  V30 14 1 10 15
M  V30 15 1 16 11
M  V30 16 1 12 17
M  V30 17 1 13 18
M  V30 18 2 14 19
M  V30 19 2 15 20
M  V30 20 1 15 21
M  V30 21 1 16 22 CFG=1
M  V30 22 1 16 23
M  V30 23 1 24 17
M  V30 24 2 18 25
M  V30 25 1 20 26
M  V30 26 2 21 27
M  V30 27 1 28 23
M  V30 28 1 29 24
M  V30 29 1 24 30 CFG=3
M  V30 30 2 26 31
M  V30 31 1 28 32 CFG=1
M  V30 32 1 29 33 CFG=1
M  V30 33 1 32 34
M  V30 34 1 32 35
M  V30 35 1 33 36
M  V30 36 2 34 37
M  V30 37 1 34 38
M  V30 38 2 38 39
M  V30 39 1 38 40
M  V30 40 1 39 41
M  V30 41 2 40 42
M  V30 42 2 41 43
M  V30 43 1 5 7
M  V30 44 1 10 12
M  V30 45 1 11 13
M  V30 46 1 17 20
M  V30 47 1 19 25
M  V30 48 1 22 24
M  V30 49 1 27 31
M  V30 50 1 28 29
M  V30 51 1 42 43
M  V30 END BOND
M  V30 BEGIN COLLECTION
M  V30 MDLV30/STERAC1 ATOMS=(4 16 24 28 29)
M  V30 END COLLECTION
M  V30 END CTAB
M  END
>  <Molecule Name>


>  <status>
-

>  <cas>
120685-11-2

>  <name>
MIDOSTAURIN

>  <ID>
1828

>  <Smiles>
C[C@@]1([C@@H]([C@@H](C2)N(C)C(c3ccccc3)=O)OC)O[C@H]2n2c3c4n1c(cccc1)c1c4c(CNC1=O)c1c3c1c2cccc1

$$$$

Actelion Java MolfileCreator 2.0

  0  0  0  0  0  0              0 V3000
M  V30 BEGIN CTAB
M  V30 COUNTS 42 50 0 0 0
M  V30 BEGIN ATOM
M  V30 1 O 9.1426 1.7461 0.0 0
M  V30 2 C 8.3994 2.4152 0.0 0
M  V30 3 N 8.504 3.4098 0.0 0
M  V30 4 C 7.4213 2.2073 0.0 0
M  V30 5 C 7.5904 3.8165 0.0 0
M  V30 6 C 6.9213 1.3413 0.0 0
M  V30 7 C 6.9213 3.0733 0.0 0
M  V30 8 C 5.9213 1.3413 0.0 0
M  V30 9 C 7.2303 0.3902 0.0 0
M  V30 10 C 5.9213 3.0733 0.0 0
M  V30 11 N 5.6123 0.3902 0.0 0
M  V30 12 C 5.4213 2.2073 0.0 0
M  V30 13 C 6.4213 -0.1974 0.0 0
M  V30 14 C 8.1439 -0.0164 0.0 0
M  V30 15 C 5.2522 3.8165 0.0 0
M  V30 16 C 4.3301 0.0 0.0 0 CFG=2
M  V30 17 N 4.4432 2.4152 0.0 0
M  V30 18 C 6.5258 -1.192 0.0 0
M  V30 19 C 8.2484 -1.0109 0.0 0
M  V30 20 C 4.3386 3.4098 0.0 0
M  V30 21 C 5.3567 4.811 0.0 0
M  V30 22 O 4.3301 0.9999 0.0 0
M  V30 23 C 3.4641 -0.5 0.0 0
M  V30 24 C 3.4641 1.4999 0.0 0 CFG=1
M  V30 25 C 7.4394 -1.5987 0.0 0
M  V30 26 C 3.5296 3.9975 0.0 0
M  V30 27 C 4.5477 5.3988 0.0 0
M  V30 28 C 2.598 0.0 0.0 0 CFG=2
M  V30 29 C 2.598 0.9999 0.0 0 CFG=1
M  V30 30 C 2.8687 2.3034 0.0 0
M  V30 31 C 3.6341 4.9921 0.0 0
M  V30 32 N 1.732 -0.5 0.0 0
M  V30 33 O 1.732 1.4999 0.0 0
M  V30 34 C 0.866 0.0 0.0 0
M  V30 35 C 1.732 -1.5 0.0 0
M  V30 36 O 0.866 1.0 0.0 0
M  V30 37 C 0.0 -0.5 0.0 0
M  V30 38 C -0.866 0.0 0.0 0
M  V30 39 C 0.0 -1.4999 0.0 0
M  V30 40 C -1.732 -0.4999 0.0 0
M  V30 41 C -0.866 -1.9999 0.0 0
M  V30 42 C -1.732 -1.4999 0.0 0
M  V30 END ATOM
M  V30 BEGIN BOND
M  V30 1 2 1 2
M  V30 2 1 2 3
M  V30 3 1 2 4
M  V30 4 1 3 5
M  V30 5 2 4 6
M  V30 6 1 4 7
M  V30 7 1 6 8
M  V30 8 1 6 9
M  V30 9 2 7 10
M  V30 10 1 8 11
M  V30 11 2 8 12
M  V30 12 2 9 13
M  V30 13 1 9 14
M  V30 14 1 10 15
M  V30 15 1 16 11
M  V30 16 1 12 17
M  V30 17 1 13 18
M  V30 18 2 14 19
M  V30 19 2 15 20
M  V30 20 1 15 21
M  V30 21 1 16 22 CFG=1
M  V30 22 1 16 23
M  V30 23 1 24 17
M  V30 24 2 18 25
M  V30 25 1 20 26
M  V30 26 2 21 27
M  V30 27 1 28 23
M  V30 28 1 29 24
M  V30 29 1 24 30 CFG=3
M  V30 30 2 26 31
M  V30 31 1 28 32 CFG=1
M  V30 32 1 29 33 CFG=1
M  V30 33 1 32 34
M  V30 34 1 32 35
M  V30 35 2 34 36
M  V30 36 1 34 37
M  V30 37 2 37 38
M  V30 38 1 37 39
M  V30 39 1 38 40
M  V30 40 2 39 41
M  V30 41 2 40 42
M  V30 42 1 5 7
M  V30 43 1 10 12
M  V30 44 1 11 13
M  V30 45 1 17 20
M  V30 46 1 19 25
M  V30 47 1 22 24
M  V30 48 1 27 31
M  V30 49 1 28 29
M  V30 50 1 41 42
M  V30 END BOND
M  V30 BEGIN COLLECTION
M  V30 MDLV30/STERAC1 ATOMS=(4 16 24 28 29)
M  V30 END COLLECTION
M  V30 END CTAB
M  END
>  <Molecule Name>


>  <status>
-

>  <cas>
740816-86-8

>  <name>
M MIDOSTAURIN

>  <ID>
1829

>  <Smiles>
C[C@@]1([C@@H]([C@@H](C2)N(C)C(c3ccccc3)=O)O)O[C@H]2n2c3c4n1c(cccc1)c1c4c(CNC1=O)c1c3c1c2cccc1

$$$$

Actelion Java MolfileCreator 2.0

  0  0  0  0  0  0              0 V3000
M  V30 BEGIN CTAB
M  V30 COUNTS 44 52 0 0 0
M  V30 BEGIN ATOM
M  V30 1 O 9.1426 1.7461 0.0 0
M  V30 2 C 8.3994 2.4152 0.0 0
M  V30 3 N 8.504 3.4098 0.0 0
M  V30 4 C 7.4213 2.2073 0.0 0
M  V30 5 C 7.5904 3.8165 0.0 0 CFG=2
M  V30 6 C 6.9213 1.3413 0.0 0
M  V30 7 C 6.9213 3.0733 0.0 0
M  V30 8 O 7.3825 4.7946 0.0 0
M  V30 9 C 5.9213 1.3413 0.0 0
M  V30 10 C 7.2303 0.3902 0.0 0
M  V30 11 C 5.9213 3.0733 0.0 0
M  V30 12 N 5.6123 0.3902 0.0 0
M  V30 13 C 5.4213 2.2073 0.0 0
M  V30 14 C 6.4213 -0.1974 0.0 0
M  V30 15 C 8.1439 -0.0164 0.0 0
M  V30 16 C 5.2522 3.8165 0.0 0
M  V30 17 C 4.3301 0.0 0.0 0 CFG=2
M  V30 18 N 4.4432 2.4152 0.0 0
M  V30 19 C 6.5258 -1.192 0.0 0
M  V30 20 C 8.2484 -1.0109 0.0 0
M  V30 21 C 4.3386 3.4098 0.0 0
M  V30 22 C 5.3567 4.811 0.0 0
M  V30 23 O 4.3301 0.9999 0.0 0
M  V30 24 C 3.4641 -0.5 0.0 0
M  V30 25 C 3.4641 1.4999 0.0 0 CFG=1
M  V30 26 C 7.4394 -1.5987 0.0 0
M  V30 27 C 3.5296 3.9975 0.0 0
M  V30 28 C 4.5477 5.3988 0.0 0
M  V30 29 C 2.598 0.0 0.0 0 CFG=2
M  V30 30 C 2.598 0.9999 0.0 0 CFG=1
M  V30 31 C 2.8687 2.3034 0.0 0
M  V30 32 C 3.6341 4.9921 0.0 0
M  V30 33 N 1.732 -0.5 0.0 0
M  V30 34 O 1.732 1.4999 0.0 0
M  V30 35 C 1.732 -1.5 0.0 0
M  V30 36 C 0.866 0.0 0.0 0
M  V30 37 C 0.866 0.9999 0.0 0
M  V30 38 O 2.598 -2.0 0.0 0
M  V30 39 C 0.866 -2.0 0.0 0
M  V30 40 C 0.866 -3.0 0.0 0
M  V30 41 C 0.0 -1.5 0.0 0
M  V30 42 C 0.0 -3.5 0.0 0
M  V30 43 C -0.866 -2.0 0.0 0
M  V30 44 C -0.866 -3.0 0.0 0
M  V30 END ATOM
M  V30 BEGIN BOND
M  V30 1 2 1 2
M  V30 2 1 2 3
M  V30 3 1 2 4
M  V30 4 1 5 3
M  V30 5 2 4 6
M  V30 6 1 4 7
M  V30 7 1 5 8 CFG=3
M  V30 8 1 6 9
M  V30 9 1 6 10
M  V30 10 2 7 11
M  V30 11 1 9 12
M  V30 12 2 9 13
M  V30 13 2 10 14
M  V30 14 1 10 15
M  V30 15 1 11 16
M  V30 16 1 17 12
M  V30 17 1 13 18
M  V30 18 1 14 19
M  V30 19 2 15 20
M  V30 20 2 16 21
M  V30 21 1 16 22
M  V30 22 1 17 23 CFG=1
M  V30 23 1 17 24
M  V30 24 1 25 18
M  V30 25 2 19 26
M  V30 26 1 21 27
M  V30 27 2 22 28
M  V30 28 1 29 24
M  V30 29 1 30 25
M  V30 30 1 25 31 CFG=3
M  V30 31 2 27 32
M  V30 32 1 29 33 CFG=1
M  V30 33 1 30 34 CFG=1
M  V30 34 1 33 35
M  V30 35 1 33 36
M  V30 36 1 34 37
M  V30 37 2 35 38
M  V30 38 1 35 39
M  V30 39 2 39 40
M  V30 40 1 39 41
M  V30 41 1 40 42
M  V30 42 2 41 43
M  V30 43 2 42 44
M  V30 44 1 5 7
M  V30 45 1 11 13
M  V30 46 1 12 14
M  V30 47 1 18 21
M  V30 48 1 20 26
M  V30 49 1 23 25
M  V30 50 1 28 32
M  V30 51 1 29 30
M  V30 52 1 43 44
M  V30 END BOND
M  V30 BEGIN COLLECTION
M  V30 MDLV30/STERAC1 ATOMS=(5 5 17 25 29 30)
M  V30 END COLLECTION
M  V30 END CTAB
M  END
>  <Molecule Name>


>  <status>
-

>  <cas>
179237-49-1

>  <name>
M MIDOSTAURIN

>  <ID>
1830

>  <Smiles>
C[C@@]1([C@@H]([C@@H](C2)N(C)C(c3ccccc3)=O)OC)O[C@H]2n2c3c4n1c(cccc1)c1c4c([C@@H](NC1=O)O)c1c3c1c2cccc1

$$$$

Actelion Java MolfileCreator 2.0

  0  0  0  0  0  0              0 V3000
M  V30 BEGIN CTAB
M  V30 COUNTS 40 43 0 0 0
M  V30 BEGIN ATOM
M  V30 1 Cl 5.1961 -1.4999 0.0 0
M  V30 2 C 6.0621 -1.9999 0.0 0
M  V30 3 C 6.0621 -2.9999 0.0 0
M  V30 4 C 6.9282 -1.5 0.0 0
M  V30 5 O 5.1961 -3.4999 0.0 0
M  V30 6 C 6.9282 -3.5 0.0 0
M  V30 7 C 7.7942 -2.0 0.0 0
M  V30 8 C 4.3301 -2.9999 0.0 0
M  V30 9 C 7.7942 -3.0 0.0 0
M  V30 10 N 8.6602 -1.5 0.0 0
M  V30 11 C 3.4641 -3.4999 0.0 0
M  V30 12 C 8.6602 -0.5 0.0 0
M  V30 13 N 2.598 -2.9999 0.0 0
M  V30 14 C 3.4641 -4.4999 0.0 0
M  V30 15 C 9.5262 0.0 0.0 0
M  V30 16 C 7.7942 0.0 0.0 0
M  V30 17 C 1.732 -3.4999 0.0 0
M  V30 18 C 2.598 -4.9999 0.0 0
M  V30 19 C 10.3923 -0.5 0.0 0
M  V30 20 C 9.5262 0.9999 0.0 0
M  V30 21 C 7.7942 0.9999 0.0 0
M  V30 22 C 6.9282 -0.5 0.0 0
M  V30 23 C 1.732 -4.4999 0.0 0
M  V30 24 N 11.2583 -1.0 0.0 0
M  V30 25 N 8.6602 1.4999 0.0 0
M  V30 26 C 6.9282 1.4999 0.0 0
M  V30 27 C 6.0621 0.0 0.0 0
M  V30 28 C 6.0621 0.9999 0.0 0
M  V30 29 N 5.1961 -0.5 0.0 0
M  V30 30 O 5.1961 1.5 0.0 0
M  V30 31 C 4.3301 0.0 0.0 0
M  V30 32 C 5.1961 2.5 0.0 0
M  V30 33 O 4.3301 1.0 0.0 0
M  V30 34 C 3.4641 -0.5 0.0 0
M  V30 35 C 4.3301 3.0 0.0 0
M  V30 36 C 2.598 0.0 0.0 0
M  V30 37 C 1.732 -0.5 0.0 0
M  V30 38 N 0.866 0.0 0.0 0
M  V30 39 C 0.866 1.0 0.0 0
M  V30 40 C 0.0 -0.5 0.0 0
M  V30 END ATOM
M  V30 BEGIN BOND
M  V30 1 1 1 2
M  V30 2 2 2 3
M  V30 3 1 2 4
M  V30 4 1 3 5
M  V30 5 1 3 6
M  V30 6 2 4 7
M  V30 7 1 5 8
M  V30 8 2 6 9
M  V30 9 1 7 10
M  V30 10 1 8 11
M  V30 11 1 10 12
M  V30 12 2 11 13
M  V30 13 1 11 14
M  V30 14 2 12 15
M  V30 15 1 12 16
M  V30 16 1 13 17
M  V30 17 2 14 18
M  V30 18 1 15 19
M  V30 19 1 15 20
M  V30 20 1 16 21
M  V30 21 2 16 22
M  V30 22 2 17 23
M  V30 23 3 19 24
M  V30 24 2 20 25
M  V30 25 2 21 26
M  V30 26 1 22 27
M  V30 27 1 26 28
M  V30 28 1 27 29
M  V30 29 1 28 30
M  V30 30 1 29 31
M  V30 31 1 30 32
M  V30 32 2 31 33
M  V30 33 1 31 34
M  V30 34 1 32 35
M  V30 35 2 34 36
M  V30 36 1 36 37
M  V30 37 1 37 38
M  V30 38 1 38 39
M  V30 39 1 38 40
M  V30 40 1 7 9
M  V30 41 1 18 23
M  V30 42 1 21 25
M  V30 43 2 27 28
M  V30 END BOND
M  V30 END CTAB
M  END
>  <Molecule Name>


>  <status>
-

>  <cas>
698387-09-6

>  <name>
NERATINIB

>  <ID>
1831

>  <Smiles>
CCOc(cc(c1c2)ncc(C#N)c1Nc(cc1)cc(Cl)c1OCc1ncccc1)c2NC(/C=C/CN(C)C)=O

$$$$

Actelion Java MolfileCreator 2.0

  0  0  0  0  0  0              0 V3000
M  V30 BEGIN CTAB
M  V30 COUNTS 32 34 0 0 0
M  V30 BEGIN ATOM
M  V30 1 Cl 4.3301 2.9999 0.0 0
M  V30 2 C 3.4641 2.4999 0.0 0
M  V30 3 C 3.4641 1.4999 0.0 0
M  V30 4 C 2.598 2.9999 0.0 0
M  V30 5 N 2.598 0.9999 0.0 0
M  V30 6 C 1.732 2.4999 0.0 0
M  V30 7 C 1.732 1.4999 0.0 0
M  V30 8 N 0.866 0.9999 0.0 0
M  V30 9 C 0.866 0.0 0.0 0
M  V30 10 O 1.732 -0.5 0.0 0
M  V30 11 C 0.0 -0.5 0.0 0
M  V30 12 C -0.866 0.0 0.0 0
M  V30 13 C 0.0 -1.4999 0.0 0
M  V30 14 N -0.866 1.0 0.0 0
M  V30 15 C -1.732 -0.4999 0.0 0
M  V30 16 C -0.866 -1.9999 0.0 0
M  V30 17 C -1.732 1.5 0.0 0
M  V30 18 C -1.732 -1.4999 0.0 0
M  V30 19 O -0.866 -2.9999 0.0 0
M  V30 20 O -2.598 1.0 0.0 0
M  V30 21 C -1.732 2.5 0.0 0
M  V30 22 C 0.0 -3.4999 0.0 0
M  V30 23 C -2.598 3.0 0.0 0
M  V30 24 C -0.866 3.0 0.0 0
M  V30 25 C -2.598 4.0 0.0 0
M  V30 26 C -0.866 4.0 0.0 0
M  V30 27 C -1.732 4.5 0.0 0
M  V30 28 C -1.732 5.5 0.0 0
M  V30 29 N -0.866 6.0 0.0 0
M  V30 30 N -2.598 6.0 0.0 0
M  V30 31 C -3.4641 5.5 0.0 0
M  V30 32 C -2.598 7.0 0.0 0
M  V30 END ATOM
M  V30 BEGIN BOND
M  V30 1 1 1 2
M  V30 2 2 2 3
M  V30 3 1 2 4
M  V30 4 1 3 5
M  V30 5 2 4 6
M  V30 6 2 5 7
M  V30 7 1 7 8
M  V30 8 1 8 9
M  V30 9 2 9 10
M  V30 10 1 9 11
M  V30 11 2 11 12
M  V30 12 1 11 13
M  V30 13 1 12 14
M  V30 14 1 12 15
M  V30 15 2 13 16
M  V30 16 1 14 17
M  V30 17 2 15 18
M  V30 18 1 16 19
M  V30 19 2 17 20
M  V30 20 1 17 21
M  V30 21 1 19 22
M  V30 22 2 21 23
M  V30 23 1 21 24
M  V30 24 1 23 25
M  V30 25 2 24 26
M  V30 26 2 25 27
M  V30 27 1 27 28
M  V30 28 2 28 29
M  V30 29 1 28 30
M  V30 30 1 30 31
M  V30 31 1 30 32
M  V30 32 1 6 7
M  V30 33 1 16 18
M  V30 34 1 26 27
M  V30 END BOND
M  V30 END CTAB
M  END
>  <Molecule Name>


>  <status>
DISCONTINUED

>  <cas>
330942-05-7

>  <name>
BETRIXABAN

>  <ID>
1832

>  <Smiles>
CN(C)C(c(cc1)ccc1C(Nc(ccc(OC)c1)c1C(Nc(cc1)ncc1Cl)=O)=O)=N

$$$$

Actelion Java MolfileCreator 2.0

  0  0  0  0  0  0              0 V3000
M  V30 BEGIN CTAB
M  V30 COUNTS 71 70 0 0 0
M  V30 BEGIN ATOM
M  V30 1 S 22.5166 -0.5 0.0 0
M  V30 2 S 23.3826 0.0 0.0 0
M  V30 3 C 21.6506 0.0 0.0 0
M  V30 4 C 24.2487 -0.5 0.0 0
M  V30 5 C 20.7846 -0.5 0.0 0 CFG=2
M  V30 6 C 25.1147 0.0 0.0 0 CFG=1
M  V30 7 N 20.7846 -1.4999 0.0 0
M  V30 8 C 19.9185 0.0 0.0 0
M  V30 9 N 25.1147 0.9999 0.0 0
M  V30 10 C 25.9807 -0.5 0.0 0
M  V30 11 C 19.9185 -2.0 0.0 0
M  V30 12 O 19.9185 0.9999 0.0 0
M  V30 13 N 19.0525 -0.5 0.0 0
M  V30 14 O 26.8467 0.0 0.0 0
M  V30 15 O 25.9807 -1.4999 0.0 0 CHG=-1
M  V30 16 O 19.0525 -1.5 0.0 0
M  V30 17 C 19.9185 -2.9999 0.0 0
M  V30 18 C 18.1865 0.0 0.0 0 CFG=2
M  V30 19 C 17.3205 -0.5 0.0 0
M  V30 20 C 18.1865 0.9999 0.0 0
M  V30 21 O 17.3205 -1.4999 0.0 0
M  V30 22 N 16.4544 0.0 0.0 0
M  V30 23 C 15.5884 -0.5 0.0 0 CFG=2
M  V30 24 C 14.7224 0.0 0.0 0
M  V30 25 C 15.5884 -1.4999 0.0 0
M  V30 26 O 14.7224 1.0 0.0 0
M  V30 27 N 13.8564 -0.5 0.0 0
M  V30 28 C 16.4544 -2.0 0.0 0
M  V30 29 C 12.9903 0.0 0.0 0 CFG=2
M  V30 30 C 16.4544 -3.0 0.0 0
M  V30 31 C 12.1243 -0.5 0.0 0
M  V30 32 C 12.9903 0.9999 0.0 0
M  V30 33 N 17.3205 -3.5 0.0 0
M  V30 34 O 12.1243 -1.5 0.0 0
M  V30 35 N 11.2583 0.0 0.0 0
M  V30 36 C 12.1243 1.4999 0.0 0
M  V30 37 C 17.3205 -4.5 0.0 0
M  V30 38 C 10.3923 -0.5 0.0 0 CFG=2
M  V30 39 C 12.1243 2.4999 0.0 0
M  V30 40 N 16.4544 -5.0 0.0 0 CHG=1
M  V30 41 N 18.1865 -5.0 0.0 0
M  V30 42 C 9.5262 0.0 0.0 0
M  V30 43 C 10.3923 -1.4999 0.0 0
M  V30 44 N 11.2583 2.9999 0.0 0
M  V30 45 O 9.5262 1.0 0.0 0
M  V30 46 N 8.6602 -0.5 0.0 0
M  V30 47 C 11.2583 -1.9999 0.0 0
M  V30 48 C 11.2583 3.9999 0.0 0
M  V30 49 C 7.7942 0.0 0.0 0 CFG=2
M  V30 50 C 11.2583 -3.0 0.0 0
M  V30 51 N 12.1243 4.4999 0.0 0 CHG=1
M  V30 52 N 10.3923 4.4999 0.0 0
M  V30 53 C 6.9282 -0.5 0.0 0
M  V30 54 C 7.7942 0.9999 0.0 0
M  V30 55 N 12.1243 -3.5 0.0 0
M  V30 56 O 6.9282 -1.4999 0.0 0
M  V30 57 N 6.0621 0.0 0.0 0
M  V30 58 C 12.1243 -4.5 0.0 0
M  V30 59 C 5.1961 -0.5 0.0 0 CFG=2
M  V30 60 N 11.2583 -5.0 0.0 0 CHG=1
M  V30 61 N 12.9903 -5.0 0.0 0
M  V30 62 C 5.1961 -1.5 0.0 0
M  V30 63 C 4.3301 0.0 0.0 0
M  V30 64 O 4.3301 -1.9999 0.0 0
M  V30 65 N 6.0621 -2.0 0.0 0
M  V30 66 C 3.4641 -0.5 0.0 0
M  V30 67 C 2.598 0.0 0.0 0
M  V30 68 N 1.732 -0.5 0.0 0
M  V30 69 C 0.866 0.0 0.0 0
M  V30 70 N 0.866 1.0 0.0 0 CHG=1
M  V30 71 N 0.0 -0.5 0.0 0
M  V30 END ATOM
M  V30 BEGIN BOND
M  V30 1 1 1 2
M  V30 2 1 1 3
M  V30 3 1 2 4
M  V30 4 1 5 3
M  V30 5 1 6 4
M  V30 6 1 5 7 CFG=3
M  V30 7 1 5 8
M  V30 8 1 6 9 CFG=1
M  V30 9 1 6 10
M  V30 10 1 7 11
M  V30 11 2 8 12
M  V30 12 1 8 13
M  V30 13 2 10 14
M  V30 14 1 10 15
M  V30 15 2 11 16
M  V30 16 1 11 17
M  V30 17 1 18 13 CFG=3
M  V30 18 1 18 19
M  V30 19 1 18 20
M  V30 20 2 19 21
M  V30 21 1 19 22
M  V30 22 1 23 22 CFG=1
M  V30 23 1 23 24
M  V30 24 1 23 25
M  V30 25 2 24 26
M  V30 26 1 24 27
M  V30 27 1 25 28
M  V30 28 1 29 27 CFG=3
M  V30 29 1 28 30
M  V30 30 1 29 31
M  V30 31 1 29 32
M  V30 32 1 30 33
M  V30 33 2 31 34
M  V30 34 1 31 35
M  V30 35 1 32 36
M  V30 36 1 33 37
M  V30 37 1 38 35 CFG=1
M  V30 38 1 36 39
M  V30 39 2 37 40
M  V30 40 1 37 41
M  V30 41 1 38 42
M  V30 42 1 38 43
M  V30 43 1 39 44
M  V30 44 2 42 45
M  V30 45 1 42 46
M  V30 46 1 43 47
M  V30 47 1 44 48
M  V30 48 1 49 46 CFG=3
M  V30 49 1 47 50
M  V30 50 2 48 51
M  V30 51 1 48 52
M  V30 52 1 49 53
M  V30 53 1 49 54
M  V30 54 1 50 55
M  V30 55 2 53 56
M  V30 56 1 53 57
M  V30 57 1 55 58
M  V30 58 1 59 57 CFG=3
M  V30 59 2 58 60
M  V30 60 1 58 61
M  V30 61 1 59 62
M  V30 62 1 59 63
M  V30 63 2 62 64
M  V30 64 1 62 65
M  V30 65 1 63 66
M  V30 66 1 66 67
M  V30 67 1 67 68
M  V30 68 1 68 69
M  V30 69 2 69 70
M  V30 70 1 69 71
M  V30 END BOND
M  V30 BEGIN COLLECTION
M  V30 MDLV30/STERAC1 ATOMS=(8 5 6 18 23 29 38 49 59)
M  V30 END COLLECTION
M  V30 END CTAB
M  END
>  <Molecule Name>


>  <status>
-

>  <cas>
1262780-97-1

>  <name>
ETELCALCETIDE

>  <ID>
1833

>  <Smiles>
C[C@@H](C(N[C@@H](CCCNC(N)=[NH2+])C(N)=O)=O)NC([C@H](CCCNC(N)=[NH2+])NC([C@H](CCCNC(N)=[NH2+])NC([C@H](CCCNC(N)=[NH2+])NC([C@H](C)NC([C@H](CSSC[C@H](C([O-])=O)N)NC(C)=O)=O)=O)=O)=O)=O

$$$$

Actelion Java MolfileCreator 2.0

  0  0  0  0  0  0              0 V3000
M  V30 BEGIN CTAB
M  V30 COUNTS 24 27 0 0 0
M  V30 BEGIN ATOM
M  V30 1 O 1.732 -0.5 0.0 0
M  V30 2 C 0.866 0.0 0.0 0
M  V30 3 N 0.866 1.0 0.0 0
M  V30 4 C 0.0 -0.5 0.0 0
M  V30 5 C -0.866 0.0 0.0 0
M  V30 6 C 0.0 -1.4999 0.0 0
M  V30 7 N -1.0739 0.9781 0.0 0
M  V30 8 C -1.732 -0.4999 0.0 0
M  V30 9 C -0.866 -1.9999 0.0 0
M  V30 10 N -2.0684 1.0826 0.0 0
M  V30 11 C -1.732 -1.4999 0.0 0
M  V30 12 C -2.4751 0.1691 0.0 0
M  V30 13 C -2.5684 1.9487 0.0 0
M  V30 14 C -2.0684 2.8147 0.0 0
M  V30 15 C -3.5684 1.9487 0.0 0
M  V30 16 C -2.5684 3.6807 0.0 0
M  V30 17 C -4.0684 2.8147 0.0 0
M  V30 18 C -3.5684 3.6807 0.0 0
M  V30 19 C -4.0684 4.5467 0.0 0 CFG=2
M  V30 20 C -3.5684 5.4128 0.0 0
M  V30 21 C -5.0684 4.5467 0.0 0
M  V30 22 N -4.0684 6.2788 0.0 0
M  V30 23 C -5.5684 5.4128 0.0 0
M  V30 24 C -5.0684 6.2788 0.0 0
M  V30 END ATOM
M  V30 BEGIN BOND
M  V30 1 2 1 2
M  V30 2 1 2 3
M  V30 3 1 2 4
M  V30 4 1 4 5
M  V30 5 2 4 6
M  V30 6 2 5 7
M  V30 7 1 5 8
M  V30 8 1 6 9
M  V30 9 1 7 10
M  V30 10 1 8 11
M  V30 11 2 8 12
M  V30 12 1 10 13
M  V30 13 2 13 14
M  V30 14 1 13 15
M  V30 15 1 14 16
M  V30 16 2 15 17
M  V30 17 2 16 18
M  V30 18 1 19 18 CFG=1
M  V30 19 1 19 20
M  V30 20 1 19 21
M  V30 21 1 20 22
M  V30 22 1 21 23
M  V30 23 1 22 24
M  V30 24 2 9 11
M  V30 25 1 10 12
M  V30 26 1 17 18
M  V30 27 1 23 24
M  V30 END BOND
M  V30 BEGIN COLLECTION
M  V30 MDLV30/STERAC1 ATOMS=(1 19)
M  V30 END COLLECTION
M  V30 END CTAB
M  END
>  <Molecule Name>


>  <status>
-

>  <cas>
1038915-60-4

>  <name>
NIRAPARIB

>  <ID>
1834

>  <Smiles>
NC(c1cccc2cn(-c3ccc(C4CNCCC4)cc3)nc12)=O

$$$$

Actelion Java MolfileCreator 2.0

  0  0  0  0  0  0              0 V3000
M  V30 BEGIN CTAB
M  V30 COUNTS 10 9 0 0 0
M  V30 BEGIN ATOM
M  V30 1 O 5.1961 -0.5 0.0 0
M  V30 2 C 4.3301 0.0 0.0 0
M  V30 3 O 4.3301 1.0 0.0 0 CHG=-1
M  V30 4 C 3.4641 -0.5 0.0 0 CFG=1
M  V30 5 N 3.4641 -1.5 0.0 0
M  V30 6 C 2.598 0.0 0.0 0
M  V30 7 C 1.732 -0.5 0.0 0
M  V30 8 C 0.866 0.0 0.0 0
M  V30 9 O 0.866 1.0 0.0 0
M  V30 10 N 0.0 -0.5 0.0 0
M  V30 END ATOM
M  V30 BEGIN BOND
M  V30 1 2 1 2
M  V30 2 1 2 3
M  V30 3 1 4 2
M  V30 4 1 4 5 CFG=1
M  V30 5 1 4 6
M  V30 6 1 6 7
M  V30 7 1 7 8
M  V30 8 2 8 9
M  V30 9 1 8 10
M  V30 END BOND
M  V30 BEGIN COLLECTION
M  V30 MDLV30/STERAC1 ATOMS=(1 4)
M  V30 END COLLECTION
M  V30 END CTAB
M  END
>  <Molecule Name>


>  <status>
-

>  <cas>
56-85-9

>  <name>
L-GLUTAMINE

>  <ID>
1835

>  <Smiles>
NC(CCC(N)=O)C([O-])=O

$$$$

Actelion Java MolfileCreator 2.0

  0  0  0  0  0  0              0 V3000
M  V30 BEGIN CTAB
M  V30 COUNTS 30 33 0 0 0
M  V30 BEGIN ATOM
M  V30 1 Cl 5.1961 -1.5 0.0 0
M  V30 2 C 4.3301 -2.0 0.0 0
M  V30 3 C 3.4641 -1.5 0.0 0
M  V30 4 C 4.3301 -3.0 0.0 0
M  V30 5 N 3.4641 -0.5 0.0 0
M  V30 6 C 2.598 -2.0 0.0 0
M  V30 7 N 5.1961 -3.5 0.0 0
M  V30 8 C 3.4641 -3.5 0.0 0
M  V30 9 C 4.3301 0.0 0.0 0
M  V30 10 C 2.598 0.0 0.0 0
M  V30 11 C 1.732 -1.5 0.0 0
M  V30 12 C 2.598 -3.0 0.0 0
M  V30 13 C 5.4549 -4.4659 0.0 0
M  V30 14 C 6.162 -3.2411 0.0 0
M  V30 15 F 3.4641 -4.5 0.0 0
M  V30 16 N 5.1961 -0.5 0.0 0
M  V30 17 C 4.3301 0.9999 0.0 0
M  V30 18 C 1.732 -0.5 0.0 0
M  V30 19 O 0.866 -1.9999 0.0 0
M  V30 20 C 6.4208 -4.2071 0.0 0
M  V30 21 C 6.0621 0.0 0.0 0
M  V30 22 F 3.4641 1.5 0.0 0
M  V30 23 C 5.1961 1.4999 0.0 0
M  V30 24 C 0.866 0.0 0.0 0
M  V30 25 O 7.2869 -4.7071 0.0 0
M  V30 26 N 6.9282 -0.5 0.0 0
M  V30 27 C 6.0621 0.9999 0.0 0
M  V30 28 O 0.866 1.0 0.0 0
M  V30 29 O 0.0 -0.5 0.0 0 CHG=-1
M  V30 30 F 6.9282 1.4999 0.0 0
M  V30 END ATOM
M  V30 BEGIN BOND
M  V30 1 1 1 2
M  V30 2 2 2 3
M  V30 3 1 2 4
M  V30 4 1 3 5
M  V30 5 1 3 6
M  V30 6 1 4 7
M  V30 7 2 4 8
M  V30 8 1 5 9
M  V30 9 1 5 10
M  V30 10 1 6 11
M  V30 11 2 6 12
M  V30 12 1 7 13
M  V30 13 1 7 14
M  V30 14 1 8 15
M  V30 15 2 9 16
M  V30 16 1 9 17
M  V30 17 2 10 18
M  V30 18 2 11 19
M  V30 19 1 13 20
M  V30 20 1 16 21
M  V30 21 1 17 22
M  V30 22 2 17 23
M  V30 23 1 18 24
M  V30 24 1 20 25
M  V30 25 1 21 26
M  V30 26 2 21 27
M  V30 27 2 24 28
M  V30 28 1 24 29
M  V30 29 1 27 30
M  V30 30 1 8 12
M  V30 31 1 11 18
M  V30 32 1 14 20
M  V30 33 1 23 27
M  V30 END BOND
M  V30 END CTAB
M  END
>  <Molecule Name>


>  <status>
-

>  <cas>
189279-58-1

>  <name>
DELAFLOXACIN

>  <ID>
1836

>  <Smiles>
Nc(nc(c(F)c1)N(C=C(C([O-])=O)C(c2cc(F)c3N(C4)CC4O)=O)c2c3Cl)c1F

$$$$

Actelion Java MolfileCreator 2.0

  0  0  0  0  0  0              0 V3000
M  V30 BEGIN CTAB
M  V30 COUNTS 33 35 0 0 0
M  V30 BEGIN ATOM
M  V30 1 F 7.4282 3.366 0.0 0
M  V30 2 C 6.9282 2.5 0.0 0
M  V30 3 F 7.7942 2.0 0.0 0
M  V30 4 F 6.4282 1.6339 0.0 0
M  V30 5 C 6.0621 3.0 0.0 0
M  V30 6 N 6.0621 4.0 0.0 0
M  V30 7 C 5.1961 2.5 0.0 0
M  V30 8 C 5.1961 4.5 0.0 0
M  V30 9 C 4.3301 3.0 0.0 0
M  V30 10 C 4.3301 4.0 0.0 0
M  V30 11 N 3.4641 2.5 0.0 0
M  V30 12 C 3.4641 1.5 0.0 0
M  V30 13 N 2.598 1.0 0.0 0
M  V30 14 N 4.3301 1.0 0.0 0
M  V30 15 C 2.598 0.0 0.0 0
M  V30 16 C 4.3301 0.0 0.0 0
M  V30 17 N 3.4641 -0.4999 0.0 0
M  V30 18 N 1.732 -0.5 0.0 0
M  V30 19 C 5.1961 -0.5 0.0 0
M  V30 20 C 0.866 0.0 0.0 0
M  V30 21 N 5.1961 -1.5 0.0 0
M  V30 22 C 6.0621 0.0 0.0 0
M  V30 23 C 0.0 -0.5 0.0 0
M  V30 24 C 6.0621 -2.0 0.0 0
M  V30 25 C 6.9282 -0.4999 0.0 0
M  V30 26 O 0.4999 -1.366 0.0 0
M  V30 27 C -0.866 -0.9999 0.0 0
M  V30 28 C -0.4999 0.366 0.0 0
M  V30 29 C 6.9282 -1.4999 0.0 0
M  V30 30 C 6.0621 -3.0 0.0 0
M  V30 31 F 7.0621 -2.9999 0.0 0
M  V30 32 F 6.0621 -4.0 0.0 0
M  V30 33 F 5.0621 -3.0 0.0 0
M  V30 END ATOM
M  V30 BEGIN BOND
M  V30 1 1 1 2
M  V30 2 1 2 3
M  V30 3 1 2 4
M  V30 4 1 2 5
M  V30 5 2 5 6
M  V30 6 1 5 7
M  V30 7 1 6 8
M  V30 8 2 7 9
M  V30 9 2 8 10
M  V30 10 1 9 11
M  V30 11 1 11 12
M  V30 12 2 12 13
M  V30 13 1 12 14
M  V30 14 1 13 15
M  V30 15 2 14 16
M  V30 16 2 15 17
M  V30 17 1 15 18
M  V30 18 1 16 19
M  V30 19 1 18 20
M  V30 20 2 19 21
M  V30 21 1 19 22
M  V30 22 1 20 23
M  V30 23 1 21 24
M  V30 24 2 22 25
M  V30 25 1 23 26
M  V30 26 1 23 27
M  V30 27 1 23 28
M  V30 28 2 24 29
M  V30 29 1 24 30
M  V30 30 1 30 31
M  V30 31 1 30 32
M  V30 32 1 30 33
M  V30 33 1 9 10
M  V30 34 1 16 17
M  V30 35 1 25 29
M  V30 END BOND
M  V30 END CTAB
M  END
>  <Molecule Name>


>  <status>
-

>  <cas>
1446502-11-9

>  <name>
ENASIDENIB

>  <ID>
1837

>  <Smiles>
CC(C)(CNc1nc(-c2nc(C(F)(F)F)ccc2)nc(Nc2cc(C(F)(F)F)ncc2)n1)O

$$$$

Actelion Java MolfileCreator 2.0

  0  0  0  0  0  0              0 V3000
M  V30 BEGIN CTAB
M  V30 COUNTS 32 36 0 0 0
M  V30 BEGIN ATOM
M  V30 1 O 0.0906 8.3077 0.0 0
M  V30 2 C 0.9747 7.0909 0.0 0
M  V30 3 C 2.4706 7.2481 0.0 0
M  V30 4 C 0.3629 5.7167 0.0 0
M  V30 5 C 3.3548 6.0312 0.0 0
M  V30 6 C 1.247 4.4999 0.0 0
M  V30 7 C 2.743 4.6571 0.0 0 CFG=2
M  V30 8 C 4.8507 6.1884 0.0 0
M  V30 9 C 3.6271 3.4402 0.0 0 CFG=1
M  V30 10 C 2.1312 3.283 0.0 0
M  V30 11 C 5.7348 4.9715 0.0 0
M  V30 12 C 3.0153 2.0661 0.0 0 CFG=1
M  V30 13 C 5.123 3.5974 0.0 0 CFG=1
M  V30 14 O 1.5194 1.9089 0.0 0
M  V30 15 C 3.8994 0.8492 0.0 0
M  V30 16 C 6.0071 2.3805 0.0 0 CFG=1
M  V30 17 C 5.3953 1.0064 0.0 0 CFG=1
M  V30 18 C 7.503 2.2233 0.0 0
M  V30 19 C 6.5131 0.0 0.0 0 CFG=1
M  V30 20 C 4.9118 -0.2549 0.0 0
M  V30 21 C 7.8158 0.752 0.0 0 CFG=2
M  V30 22 N 6.8259 -1.4712 0.0 0
M  V30 23 C 5.2548 -0.8258 0.0 0
M  V30 24 O 8.9336 -0.2543 0.0 0
M  V30 25 C 8.3218 -1.6285 0.0 0
M  V30 26 O 3.9079 0.0 0.0 0
M  V30 27 C 5.2105 -2.2562 0.0 0
M  V30 28 C 9.0738 -2.9311 0.0 0
M  V30 29 O 3.9079 -3.0083 0.0 0
M  V30 30 C 3.9079 -4.5124 0.0 0
M  V30 31 O 5.2105 -5.2645 0.0 0
M  V30 32 C 2.6052 -5.2645 0.0 0
M  V30 END ATOM
M  V30 BEGIN BOND
M  V30 1 2 1 2
M  V30 2 1 2 3
M  V30 3 1 2 4
M  V30 4 2 3 5
M  V30 5 2 4 6
M  V30 6 1 7 5
M  V30 7 1 5 8
M  V30 8 1 9 7
M  V30 9 1 7 10 CFG=3
M  V30 10 1 8 11
M  V30 11 1 9 12 CFG=3
M  V30 12 1 13 9
M  V30 13 1 12 14 CFG=3
M  V30 14 1 12 15
M  V30 15 1 16 13
M  V30 16 1 17 15
M  V30 17 1 16 18 CFG=3
M  V30 18 1 19 17
M  V30 19 1 17 20 CFG=3
M  V30 20 1 21 18
M  V30 21 1 19 22
M  V30 22 1 19 23 CFG=3
M  V30 23 1 21 24 CFG=1
M  V30 24 2 22 25
M  V30 25 2 23 26
M  V30 26 1 23 27
M  V30 27 1 25 28
M  V30 28 1 27 29
M  V30 29 1 29 30
M  V30 30 2 30 31
M  V30 31 1 30 32
M  V30 32 1 6 7
M  V30 33 1 13 11 CFG=1
M  V30 34 1 16 17
M  V30 35 1 19 21
M  V30 36 1 24 25
M  V30 END BOND
M  V30 BEGIN COLLECTION
M  V30 MDLV30/STERAC1 ATOMS=(8 7 9 12 13 16 17 19 21)
M  V30 END COLLECTION
M  V30 END CTAB
M  END
>  <Molecule Name>


>  <status>
-

>  <cas>
14484-47-0

>  <name>
DEFLAZACORT

>  <ID>
1838

>  <Smiles>
C[C@@]1(C[C@@H]2O)[C@]3(C(COC(C)=O)=O)N=C(C)O[C@@H]3C[C@H]1[C@H](CC1)[C@H]2[C@@](C)(C=C2)C1=CC2=O

$$$$

Actelion Java MolfileCreator 2.0

  0  0  0  0  0  0              0 V3000
M  V30 BEGIN CTAB
M  V30 COUNTS 29 33 0 0 0
M  V30 BEGIN ATOM
M  V30 1 O -2.5152 8.3098 0.0 0
M  V30 2 C -1.6309 7.0926 0.0 0
M  V30 3 C -0.1346 7.2499 0.0 0
M  V30 4 C -2.2428 5.7182 0.0 0
M  V30 5 C 0.7497 6.0327 0.0 0
M  V30 6 C -1.3585 4.501 0.0 0
M  V30 7 C 0.1377 4.6583 0.0 0 CFG=2
M  V30 8 C 2.246 6.19 0.0 0
M  V30 9 C 1.0221 3.4411 0.0 0 CFG=1
M  V30 10 C -0.4741 3.2838 0.0 0
M  V30 11 C 3.1303 4.9728 0.0 0
M  V30 12 C 0.4101 2.0666 0.0 0 CFG=1
M  V30 13 C 2.5184 3.5983 0.0 0 CFG=1
M  V30 14 O -1.0861 1.9093 0.0 0
M  V30 15 C 1.2945 0.8494 0.0 0
M  V30 16 C 3.4027 2.3811 0.0 0 CFG=1
M  V30 17 C 2.7908 1.0067 0.0 0 CFG=1
M  V30 18 C 4.899 2.2239 0.0 0
M  V30 19 C 3.9088 0.0 0.0 0 CFG=1
M  V30 20 C 2.3071 -0.255 0.0 0
M  V30 21 C 5.2118 0.7522 0.0 0 CFG=2
M  V30 22 N 4.2216 -1.4716 0.0 0
M  V30 23 C 2.6502 -0.826 0.0 0
M  V30 24 O 6.3299 -0.2544 0.0 0
M  V30 25 C 5.7179 -1.6289 0.0 0
M  V30 26 O 2.6059 -2.2567 0.0 0
M  V30 27 C 1.3029 0.0 0.0 0
M  V30 28 C 6.4702 -2.9318 0.0 0
M  V30 29 O 0.0 -0.7522 0.0 0
M  V30 END ATOM
M  V30 BEGIN BOND
M  V30 1 2 1 2
M  V30 2 1 2 3
M  V30 3 1 2 4
M  V30 4 2 3 5
M  V30 5 2 4 6
M  V30 6 1 7 5
M  V30 7 1 5 8
M  V30 8 1 9 7
M  V30 9 1 7 10 CFG=3
M  V30 10 1 8 11
M  V30 11 1 9 12 CFG=3
M  V30 12 1 13 9
M  V30 13 1 12 14 CFG=3
M  V30 14 1 12 15
M  V30 15 1 16 13
M  V30 16 1 17 15
M  V30 17 1 16 18 CFG=3
M  V30 18 1 19 17
M  V30 19 1 17 20 CFG=3
M  V30 20 1 21 18
M  V30 21 1 19 22
M  V30 22 1 19 23 CFG=3
M  V30 23 1 21 24 CFG=1
M  V30 24 2 22 25
M  V30 25 2 23 26
M  V30 26 1 23 27
M  V30 27 1 25 28
M  V30 28 1 27 29
M  V30 29 1 6 7
M  V30 30 1 13 11 CFG=1
M  V30 31 1 16 17
M  V30 32 1 19 21
M  V30 33 1 24 25
M  V30 END BOND
M  V30 BEGIN COLLECTION
M  V30 MDLV30/STERAC1 ATOMS=(8 7 9 12 13 16 17 19 21)
M  V30 END COLLECTION
M  V30 END CTAB
M  END
>  <Molecule Name>


>  <status>
-

>  <cas>
13649-57-5

>  <name>
M DEFLAZACORT

>  <ID>
1839

>  <Smiles>
C[C@@]1(C[C@@H]2O)[C@]3(C(CO)=O)N=C(C)O[C@@H]3C[C@H]1[C@H](CC1)[C@H]2[C@@](C)(C=C2)C1=CC2=O

$$$$

Actelion Java MolfileCreator 2.0

  0  0  0  0  0  0              0 V3000
M  V30 BEGIN CTAB
M  V30 COUNTS 113 114 0 0 0
M  V30 BEGIN ATOM
M  V30 1 S 5.8883 10.4513 0.0 0
M  V30 2 S 6.7226 10.9891 0.0 0
M  V30 3 C 5.3378 9.6718 0.0 0
M  V30 4 C 7.6665 11.3194 0.0 0
M  V30 5 C 4.6367 8.9032 0.0 0 CFG=2
M  V30 6 C 8.6602 11.4314 0.0 0 CFG=1
M  V30 7 N 4.3065 7.9594 0.0 0
M  V30 8 C 7.255 14.5658 0.0 0
M  V30 9 N 9.6539 11.3194 0.0 0
M  V30 10 C 8.6602 12.4314 0.0 0
M  V30 11 C 4.1945 6.9657 0.0 0
M  V30 12 O 6.4166 15.1107 0.0 0
M  V30 13 N 7.9141 15.3178 0.0 0
M  V30 14 C 10.5978 10.9891 0.0 0
M  V30 15 O 7.7942 12.9314 0.0 0
M  V30 16 N 9.5262 12.9314 0.0 0
M  V30 17 O 3.1945 6.9657 0.0 0
M  V30 18 C 4.3065 5.9719 0.0 0 CFG=2
M  V30 19 C 8.7195 15.9106 0.0 0 CFG=2
M  V30 20 O 11.0317 11.8901 0.0 0
M  V30 21 C 11.4445 10.4571 0.0 0
M  V30 22 C 9.5262 13.9314 0.0 0 CFG=2
M  V30 23 N 4.6367 5.0281 0.0 0
M  V30 24 C 3.3315 5.7494 0.0 0
M  V30 25 C 9.6334 16.3164 0.0 0
M  V30 26 C 8.2172 16.7753 0.0 0
M  V30 27 N 12.1516 9.75 0.0 0
M  V30 28 C 8.6602 14.4314 0.0 0
M  V30 29 C 10.3923 14.4314 0.0 0
M  V30 30 C 5.1688 4.1813 0.0 0
M  V30 31 C 3.0368 4.7938 0.0 0
M  V30 32 O 9.3288 17.2689 0.0 0
M  V30 33 N 10.6133 16.5162 0.0 0
M  V30 34 C 8.715 17.6426 0.0 0
M  V30 35 C 7.2172 16.7728 0.0 0
M  V30 36 C 12.6837 8.9032 0.0 0
M  V30 37 O 7.7942 13.9314 0.0 0
M  V30 38 O 8.6742 15.4057 0.0 0 CHG=-1
M  V30 39 C 11.2583 13.9314 0.0 0
M  V30 40 O 4.3869 3.5578 0.0 0
M  V30 41 C 5.8759 3.4742 0.0 0 CFG=1
M  V30 42 C 3.717 4.0608 0.0 0
M  V30 43 C 2.0619 4.5713 0.0 0
M  V30 44 C 11.6131 16.5008 0.0 0 CFG=2
M  V30 45 O 13.5846 9.3371 0.0 0
M  V30 46 C 13.0139 7.9594 0.0 0 CFG=1
M  V30 47 C 11.2583 12.9314 0.0 0
M  V30 48 C 12.1243 14.4314 0.0 0
M  V30 49 N 6.7226 2.9422 0.0 0
M  V30 50 C 5.2524 2.6924 0.0 0
M  V30 51 C 12.5863 16.2707 0.0 0
M  V30 52 C 11.7366 17.4931 0.0 0
M  V30 53 N 13.1137 6.9718 0.0 0
M  V30 54 C 13.8753 8.2388 0.0 0 CFG=2
M  V30 55 C 7.6665 2.6119 0.0 0
M  V30 56 C 5.6177 1.7615 0.0 0
M  V30 57 O 12.9202 17.2133 0.0 0
M  V30 58 N 13.4873 15.8368 0.0 0
M  V30 59 C 10.939 18.0962 0.0 0
M  V30 60 C 12.8474 6.0554 0.0 0
M  V30 61 O 14.669 7.4488 0.0 0
M  V30 62 C 14.2436 9.1575 0.0 0
M  V30 63 O 7.444 1.637 0.0 0
M  V30 64 C 8.6602 2.5 0.0 0 CFG=2
M  V30 65 C 4.9942 0.9797 0.0 0
M  V30 66 C 14.2739 15.2194 0.0 0 CFG=2
M  V30 67 O 10.0178 17.707 0.0 0
M  V30 68 N 11.0625 19.0886 0.0 0
M  V30 69 O 13.9889 5.7494 0.0 0
M  V30 70 C 12.6837 5.0281 0.0 0 CFG=1
M  V30 71 N 8.6602 1.5 0.0 0
M  V30 72 C 9.6539 2.6119 0.0 0
M  V30 73 O 4.0054 1.1287 0.0 0
M  V30 74 O 5.3596 0.0488 0.0 0 CHG=-1
M  V30 75 C 14.9094 14.4473 0.0 0
M  V30 76 C 14.9728 15.9347 0.0 0
M  V30 77 N 15.4783 10.6056 0.0 0
M  V30 78 C 12.1516 4.1813 0.0 0
M  V30 79 C 9.5262 1.0 0.0 0
M  V30 80 S 10.5978 2.9422 0.0 0
M  V30 81 O 15.7457 14.9956 0.0 0
M  V30 82 N 15.3641 13.5566 0.0 0
M  V30 83 C 15.9416 15.6871 0.0 0
M  V30 84 C 14.7028 16.8975 0.0 0
M  V30 85 C 15.6554 11.5898 0.0 0
M  V30 86 S 11.4445 3.4742 0.0 0
M  V30 87 O 10.3923 1.5 0.0 0
M  V30 88 C 9.5262 0.0 0.0 0 CFG=1
M  V30 89 C 15.6167 12.5891 0.0 0 CFG=2
M  V30 90 O 16.653 11.5202 0.0 0
M  V30 91 N 10.3923 -0.4999 0.0 0
M  V30 92 C 8.6602 -0.5 0.0 0
M  V30 93 C 16.6059 12.7356 0.0 0
M  V30 94 C 11.2583 0.0 0.0 0
M  V30 95 C 8.6602 -1.5 0.0 0
M  V30 96 O 11.2583 0.9999 0.0 0
M  V30 97 C 12.1243 -0.4999 0.0 0 CFG=1
M  V30 98 C 7.7942 -2.0 0.0 0
M  V30 99 N 12.1243 -1.4999 0.0 0
M  V30 100 C 12.9903 0.0 0.0 0
M  V30 101 O 7.7942 -3.0 0.0 0
M  V30 102 O 6.9282 -1.5 0.0 0 CHG=-1
M  V30 103 C 11.2583 -2.0 0.0 0
M  V30 104 C 12.9903 1.0 0.0 0
M  V30 105 O 10.3923 -1.5 0.0 0
M  V30 106 C 11.2583 -3.0 0.0 0 CFG=1
M  V30 107 O 12.1243 1.5 0.0 0
M  V30 108 O 13.8564 1.5 0.0 0 CHG=-1
M  V30 109 N 12.1243 -3.5 0.0 0
M  V30 110 C 10.3923 -3.5 0.0 0
M  V30 111 C 10.3923 -4.5 0.0 0
M  V30 112 O 11.2583 -5.0 0.0 0
M  V30 113 N 9.5262 -5.0 0.0 0
M  V30 END ATOM
M  V30 BEGIN BOND
M  V30 1 1 1 2
M  V30 2 1 1 3
M  V30 3 1 2 4
M  V30 4 1 5 3
M  V30 5 1 6 4
M  V30 6 1 5 7 CFG=3
M  V30 7 1 5 8
M  V30 8 1 6 9
M  V30 9 1 6 10 CFG=3
M  V30 10 1 7 11
M  V30 11 2 8 12
M  V30 12 1 8 13
M  V30 13 1 9 14
M  V30 14 2 10 15
M  V30 15 1 10 16
M  V30 16 2 11 17
M  V30 17 1 18 11
M  V30 18 1 19 13
M  V30 19 2 14 20
M  V30 20 1 14 21
M  V30 21 1 22 16 CFG=3
M  V30 22 1 18 23
M  V30 23 1 18 24 CFG=3
M  V30 24 1 19 25
M  V30 25 1 19 26 CFG=1
M  V30 26 1 21 27
M  V30 27 1 22 28
M  V30 28 1 22 29
M  V30 29 1 23 30
M  V30 30 1 24 31
M  V30 31 2 25 32
M  V30 32 1 25 33
M  V30 33 1 26 34
M  V30 34 1 26 35
M  V30 35 1 27 36
M  V30 36 2 28 37
M  V30 37 1 28 38
M  V30 38 1 29 39
M  V30 39 2 30 40
M  V30 40 1 41 30
M  V30 41 1 31 42
M  V30 42 1 31 43
M  V30 43 1 44 33
M  V30 44 2 36 45
M  V30 45 1 46 36
M  V30 46 1 39 47
M  V30 47 1 39 48
M  V30 48 1 41 49
M  V30 49 1 41 50 CFG=1
M  V30 50 1 44 51
M  V30 51 1 44 52 CFG=1
M  V30 52 1 46 53 CFG=3
M  V30 53 1 54 46
M  V30 54 1 49 55
M  V30 55 1 50 56
M  V30 56 2 51 57
M  V30 57 1 51 58
M  V30 58 1 52 59
M  V30 59 1 53 60
M  V30 60 1 54 61 CFG=1
M  V30 61 1 54 62
M  V30 62 2 55 63
M  V30 63 1 64 55
M  V30 64 1 56 65
M  V30 65 1 66 58
M  V30 66 2 59 67
M  V30 67 1 59 68
M  V30 68 2 60 69
M  V30 69 1 70 60
M  V30 70 1 64 71 CFG=1
M  V30 71 1 64 72
M  V30 72 2 65 73
M  V30 73 1 65 74
M  V30 74 1 66 75
M  V30 75 1 66 76 CFG=1
M  V30 76 1 70 77 CFG=1
M  V30 77 1 70 78
M  V30 78 1 71 79
M  V30 79 1 72 80
M  V30 80 2 75 81
M  V30 81 1 75 82
M  V30 82 1 76 83
M  V30 83 1 76 84
M  V30 84 1 77 85
M  V30 85 1 78 86
M  V30 86 2 79 87
M  V30 87 1 88 79
M  V30 88 1 89 82
M  V30 89 2 85 90
M  V30 90 1 88 91 CFG=1
M  V30 91 1 88 92
M  V30 92 1 89 93 CFG=1
M  V30 93 1 91 94
M  V30 94 1 92 95
M  V30 95 2 94 96
M  V30 96 1 97 94
M  V30 97 1 95 98
M  V30 98 1 97 99 CFG=3
M  V30 99 1 97 100
M  V30 100 2 98 101
M  V30 101 1 98 102
M  V30 102 1 99 103
M  V30 103 1 100 104
M  V30 104 2 103 105
M  V30 105 1 106 103
M  V30 106 2 104 107
M  V30 107 1 104 108
M  V30 108 1 106 109 CFG=1
M  V30 109 1 106 110
M  V30 110 1 110 111
M  V30 111 2 111 112
M  V30 112 1 111 113
M  V30 113 1 80 86
M  V30 114 1 85 89
M  V30 END BOND
M  V30 BEGIN COLLECTION
M  V30 MDLV30/STERAC1 ATOMS=(16 5 6 18 19 22 41 44 46 54 64 66 70 88 89 97 106)
M  V30 END COLLECTION
M  V30 END CTAB
M  END
>  <Molecule Name>


>  <status>
-

>  <cas>
467426-54-6

>  <name>
PLECANATIDE

>  <ID>
1840

>  <Smiles>
CC(C)C[C@@H](C([O-])=O)NC([C@@H](CSSC[C@@H](C(N[C@@H](C(C)C)C(N[C@@H](CC(N)=O)C(N[C@@H](C(C)C)C(N[C@@H](C)C(N[C@@H](CSSC[C@H](C(N[C@@H](CCC([O-])=O)C(N[C@@H]1CC(C)C)=O)=O)NC([C@H](CCC([O-])=O)NC([C@H](CC([O-])=O)NC([C@H](CC(N)=O)N)=O)=O)=O)C(N[C@@H]([C@@H](C)O)C(NC2)=O)=O)=O)=O)=O)=O)=O)NC1=O)NC2=O)=O

$$$$

Actelion Java MolfileCreator 2.0

  0  0  0  0  0  0              0 V3000
M  V30 BEGIN CTAB
M  V30 COUNTS 40 44 0 0 0
M  V30 BEGIN ATOM
M  V30 1 Cl 2.598 1.0 0.0 0
M  V30 2 C 2.598 0.0 0.0 0
M  V30 3 C 1.732 -0.5 0.0 0
M  V30 4 C 3.4641 -0.4999 0.0 0
M  V30 5 N 1.732 -1.5 0.0 0
M  V30 6 N 0.866 0.0 0.0 0
M  V30 7 N 3.4641 -1.4999 0.0 0
M  V30 8 C 2.598 -1.9999 0.0 0
M  V30 9 C 0.0 -0.5 0.0 0
M  V30 10 N 2.598 -2.9999 0.0 0
M  V30 11 C -0.866 0.0 0.0 0
M  V30 12 C 0.0 -1.4999 0.0 0
M  V30 13 C 3.4641 -3.4999 0.0 0
M  V30 14 P -0.866 1.0 0.0 0
M  V30 15 C -1.732 -0.4999 0.0 0
M  V30 16 C -0.866 -1.9999 0.0 0
M  V30 17 C 3.4641 -4.4999 0.0 0
M  V30 18 C 4.3301 -2.9999 0.0 0
M  V30 19 O 0.1339 0.9999 0.0 0
M  V30 20 C -0.866 2.0 0.0 0
M  V30 21 C -1.866 1.0 0.0 0
M  V30 22 C -1.732 -1.4999 0.0 0
M  V30 23 O 2.598 -4.9999 0.0 0
M  V30 24 C 4.3301 -4.9999 0.0 0
M  V30 25 C 5.1961 -3.4999 0.0 0
M  V30 26 C 2.598 -5.9999 0.0 0
M  V30 27 C 5.1961 -4.4999 0.0 0
M  V30 28 N 6.0621 -4.9999 0.0 0
M  V30 29 C 6.0621 -5.9999 0.0 0
M  V30 30 C 6.9282 -4.4999 0.0 0
M  V30 31 C 6.9282 -6.4999 0.0 0
M  V30 32 C 7.7942 -4.9999 0.0 0
M  V30 33 C 7.7942 -5.9999 0.0 0
M  V30 34 N 8.6602 -6.4999 0.0 0
M  V30 35 C 8.6602 -7.4999 0.0 0
M  V30 36 C 9.5262 -5.9999 0.0 0
M  V30 37 C 9.5262 -7.9999 0.0 0
M  V30 38 C 10.3923 -6.4999 0.0 0
M  V30 39 N 10.3923 -7.4999 0.0 0
M  V30 40 C 11.2583 -7.9999 0.0 0
M  V30 END ATOM
M  V30 BEGIN BOND
M  V30 1 1 1 2
M  V30 2 2 2 3
M  V30 3 1 2 4
M  V30 4 1 3 5
M  V30 5 1 3 6
M  V30 6 2 4 7
M  V30 7 2 5 8
M  V30 8 1 6 9
M  V30 9 1 8 10
M  V30 10 2 9 11
M  V30 11 1 9 12
M  V30 12 1 10 13
M  V30 13 1 11 14
M  V30 14 1 11 15
M  V30 15 2 12 16
M  V30 16 2 13 17
M  V30 17 1 13 18
M  V30 18 2 14 19
M  V30 19 1 14 20
M  V30 20 1 14 21
M  V30 21 2 15 22
M  V30 22 1 17 23
M  V30 23 1 17 24
M  V30 24 2 18 25
M  V30 25 1 23 26
M  V30 26 2 24 27
M  V30 27 1 27 28
M  V30 28 1 28 29
M  V30 29 1 28 30
M  V30 30 1 29 31
M  V30 31 1 30 32
M  V30 32 1 31 33
M  V30 33 1 33 34
M  V30 34 1 34 35
M  V30 35 1 34 36
M  V30 36 1 35 37
M  V30 37 1 36 38
M  V30 38 1 37 39
M  V30 39 1 39 40
M  V30 40 1 7 8
M  V30 41 1 16 22
M  V30 42 1 25 27
M  V30 43 1 32 33
M  V30 44 1 38 39
M  V30 END BOND
M  V30 END CTAB
M  END
>  <Molecule Name>


>  <status>
-

>  <cas>
1197953-54-0

>  <name>
BRIGATINIB

>  <ID>
1841

>  <Smiles>
CN(CC1)CCN1C(CC1)CCN1c(cc1)cc(OC)c1Nc(nc1)nc(Nc(cccc2)c2P(C)(C)=O)c1Cl

$$$$

Actelion Java MolfileCreator 2.0

  0  0  0  0  0  0              0 V3000
M  V30 BEGIN CTAB
M  V30 COUNTS 38 41 0 0 0
M  V30 BEGIN ATOM
M  V30 1 Cl 9.0932 -13.5 0.0 0
M  V30 2 C 9.0932 -12.0 0.0 0
M  V30 3 C 10.3923 -11.25 0.0 0
M  V30 4 C 7.7942 -11.25 0.0 0
M  V30 5 C 10.3923 -9.75 0.0 0
M  V30 6 C 7.7942 -9.75 0.0 0
M  V30 7 N 11.6913 -9.0 0.0 0
M  V30 8 C 9.0932 -9.0 0.0 0
M  V30 9 N 13.0616 -9.6101 0.0 0
M  V30 10 C 11.8481 -7.5082 0.0 0
M  V30 11 C 9.0932 -7.5 0.0 0 CFG=1
M  V30 12 C 14.0653 -8.4953 0.0 0
M  V30 13 C 13.3153 -7.1963 0.0 0
M  V30 14 O 10.3923 -6.75 0.0 0
M  V30 15 C 7.7942 -6.75 0.0 0
M  V30 16 C 15.5571 -8.6521 0.0 0
M  V30 17 C 10.3923 -5.25 0.0 0
M  V30 18 F 7.0442 -8.049 0.0 0
M  V30 19 F 6.4951 -6.0 0.0 0
M  V30 20 F 8.5442 -5.4509 0.0 0
M  V30 21 N 11.6913 -4.5 0.0 0
M  V30 22 C 9.0932 -4.5 0.0 0
M  V30 23 C 11.6913 -3.0 0.0 0
M  V30 24 C 9.0932 -3.0 0.0 0
M  V30 25 N 10.3923 -2.25 0.0 0
M  V30 26 N 12.9903 -2.2499 0.0 0
M  V30 27 C 7.7942 -2.25 0.0 0
M  V30 28 C 7.7942 -0.75 0.0 0
M  V30 29 C 6.4951 -2.9999 0.0 0
M  V30 30 C 6.4951 0.0 0.0 0
M  V30 31 C 5.1961 -2.25 0.0 0
M  V30 32 C 5.1961 -0.75 0.0 0
M  V30 33 C 3.8971 0.0 0.0 0
M  V30 34 C 2.598 -0.75 0.0 0 CFG=2
M  V30 35 N 2.598 -2.25 0.0 0
M  V30 36 C 1.299 0.0 0.0 0
M  V30 37 O 1.299 1.5 0.0 0
M  V30 38 O 0.0 -0.75 0.0 0 CHG=-1
M  V30 END ATOM
M  V30 BEGIN BOND
M  V30 1 1 1 2
M  V30 2 2 2 3
M  V30 3 1 2 4
M  V30 4 1 3 5
M  V30 5 2 4 6
M  V30 6 1 5 7
M  V30 7 2 5 8
M  V30 8 1 7 9
M  V30 9 1 7 10
M  V30 10 1 11 8
M  V30 11 2 9 12
M  V30 12 2 10 13
M  V30 13 1 11 14 CFG=3
M  V30 14 1 11 15
M  V30 15 1 12 16
M  V30 16 1 14 17
M  V30 17 1 15 18
M  V30 18 1 15 19
M  V30 19 1 15 20
M  V30 20 2 17 21
M  V30 21 1 17 22
M  V30 22 1 21 23
M  V30 23 2 22 24
M  V30 24 2 23 25
M  V30 25 1 23 26
M  V30 26 1 24 27
M  V30 27 2 27 28
M  V30 28 1 27 29
M  V30 29 1 28 30
M  V30 30 2 29 31
M  V30 31 2 30 32
M  V30 32 1 32 33
M  V30 33 1 34 33
M  V30 34 1 34 35 CFG=3
M  V30 35 1 34 36
M  V30 36 2 36 37
M  V30 37 1 36 38
M  V30 38 1 6 8
M  V30 39 1 12 13
M  V30 40 1 24 25
M  V30 41 1 31 32
M  V30 END BOND
M  V30 BEGIN COLLECTION
M  V30 MDLV30/STERAC1 ATOMS=(2 11 34)
M  V30 END COLLECTION
M  V30 END CTAB
M  END
>  <Molecule Name>


>  <status>
-

>  <cas>
1033805-28-5

>  <name>
TELOTRISTAT

>  <ID>
1842

>  <Smiles>
Cc(cc1)nn1-c1c([C@H](C(F)(F)F)Oc2nc(N)nc(-c3ccc(C[C@@H](C([O-])=O)N)cc3)c2)ccc(Cl)c1

$$$$

Actelion Java MolfileCreator 2.0

  0  0  0  0  0  0              0 V3000
M  V30 BEGIN CTAB
M  V30 COUNTS 40 43 0 0 0
M  V30 BEGIN ATOM
M  V30 1 Cl 7.7942 -9.0 0.0 0
M  V30 2 C 7.7942 -8.0 0.0 0
M  V30 3 C 8.6602 -7.5 0.0 0
M  V30 4 C 6.9282 -7.5 0.0 0
M  V30 5 C 8.6602 -6.5 0.0 0
M  V30 6 C 6.9282 -6.5 0.0 0
M  V30 7 N 9.5262 -5.9999 0.0 0
M  V30 8 C 7.7942 -6.0 0.0 0
M  V30 9 N 9.6308 -5.0054 0.0 0
M  V30 10 C 10.4398 -6.4067 0.0 0
M  V30 11 C 7.7942 -5.0 0.0 0 CFG=1
M  V30 12 C 10.6089 -4.7975 0.0 0
M  V30 13 C 11.1089 -5.6635 0.0 0
M  V30 14 O 8.6602 -4.5 0.0 0
M  V30 15 C 6.9282 -4.5 0.0 0
M  V30 16 C 11.0156 -3.884 0.0 0
M  V30 17 C 8.6602 -3.5 0.0 0
M  V30 18 F 6.4282 -5.366 0.0 0
M  V30 19 F 6.0621 -4.0 0.0 0
M  V30 20 F 7.4282 -3.6339 0.0 0
M  V30 21 N 9.5262 -3.0 0.0 0
M  V30 22 C 7.7942 -3.0 0.0 0
M  V30 23 C 9.5262 -2.0 0.0 0
M  V30 24 C 7.7942 -2.0 0.0 0
M  V30 25 N 8.6602 -1.5 0.0 0
M  V30 26 N 10.3923 -1.4999 0.0 0
M  V30 27 C 6.9282 -1.5 0.0 0
M  V30 28 C 6.9282 -0.5 0.0 0
M  V30 29 C 6.0621 -2.0 0.0 0
M  V30 30 C 6.0621 0.0 0.0 0
M  V30 31 C 5.1961 -1.5 0.0 0
M  V30 32 C 5.1961 -0.5 0.0 0
M  V30 33 C 4.3301 0.0 0.0 0
M  V30 34 C 3.4641 -0.5 0.0 0 CFG=2
M  V30 35 N 3.4641 -1.5 0.0 0
M  V30 36 C 2.598 0.0 0.0 0
M  V30 37 O 2.598 1.0 0.0 0
M  V30 38 O 1.732 -0.5 0.0 0
M  V30 39 C 0.866 0.0 0.0 0
M  V30 40 C 0.0 -0.5 0.0 0
M  V30 END ATOM
M  V30 BEGIN BOND
M  V30 1 1 1 2
M  V30 2 2 2 3
M  V30 3 1 2 4
M  V30 4 1 3 5
M  V30 5 2 4 6
M  V30 6 1 5 7
M  V30 7 2 5 8
M  V30 8 1 7 9
M  V30 9 1 7 10
M  V30 10 1 11 8
M  V30 11 2 9 12
M  V30 12 2 10 13
M  V30 13 1 11 14 CFG=3
M  V30 14 1 11 15
M  V30 15 1 12 16
M  V30 16 1 14 17
M  V30 17 1 15 18
M  V30 18 1 15 19
M  V30 19 1 15 20
M  V30 20 2 17 21
M  V30 21 1 17 22
M  V30 22 1 21 23
M  V30 23 2 22 24
M  V30 24 2 23 25
M  V30 25 1 23 26
M  V30 26 1 24 27
M  V30 27 2 27 28
M  V30 28 1 27 29
M  V30 29 1 28 30
M  V30 30 2 29 31
M  V30 31 2 30 32
M  V30 32 1 32 33
M  V30 33 1 34 33
M  V30 34 1 34 35 CFG=3
M  V30 35 1 34 36
M  V30 36 2 36 37
M  V30 37 1 36 38
M  V30 38 1 38 39
M  V30 39 1 39 40
M  V30 40 1 6 8
M  V30 41 1 12 13
M  V30 42 1 24 25
M  V30 43 1 31 32
M  V30 END BOND
M  V30 BEGIN COLLECTION
M  V30 MDLV30/STERAC1 ATOMS=(2 11 34)
M  V30 END COLLECTION
M  V30 END CTAB
M  END
>  <Molecule Name>


>  <status>
-

>  <cas>
1033805-22-9

>  <name>
TELOTRISTAT ETHYL

>  <ID>
1843

>  <Smiles>
CCOC([C@H](Cc(cc1)ccc1-c1cc(O[C@@H](C(F)(F)F)c(ccc(Cl)c2)c2-n2nc(C)cc2)nc(N)n1)N)=O

$$$$

Actelion Java MolfileCreator 2.0

  0  0  0  0  0  0              0 V3000
M  V30 BEGIN CTAB
M  V30 COUNTS 42 49 0 0 0
M  V30 BEGIN ATOM
M  V30 1 O 1.732 -0.5 0.0 0
M  V30 2 C 2.598 0.0 0.0 0
M  V30 3 N 3.4641 -0.4999 0.0 0
M  V30 4 C 2.598 1.0 0.0 0
M  V30 5 C 3.4641 -1.4999 0.0 0
M  V30 6 C 3.4641 1.4999 0.0 0
M  V30 7 C 1.7194 1.5781 0.0 0
M  V30 8 C 4.3301 -1.9999 0.0 0
M  V30 9 C 2.4641 -1.4999 0.0 0
M  V30 10 C 2.9641 -2.366 0.0 0
M  V30 11 O 4.3301 0.9999 0.0 0
M  V30 12 C 3.4641 2.5 0.0 0 CFG=1
M  V30 13 C 1.732 2.5 0.0 0 CFG=2
M  V30 14 O 5.2436 -1.5932 0.0 0
M  V30 15 N 4.4346 -2.9945 0.0 0
M  V30 16 O 4.2072 3.1691 0.0 0
M  V30 17 C 2.598 3.0 0.0 0 CFG=2
M  V30 18 O 0.9238 2.1329 0.0 0
M  V30 19 C 0.9258 3.1445 0.0 0 CFG=1
M  V30 20 N 5.9128 -2.3364 0.0 0
M  V30 21 C 5.4128 -3.2024 0.0 0
M  V30 22 C 3.8005 4.0826 0.0 0
M  V30 23 C 2.8059 3.9781 0.0 0
M  V30 24 C 2.5079 1.6407 0.0 0
M  V30 25 N 0.7565 1.7354 0.0 0
M  V30 26 C 1.0303 4.139 0.0 0
M  V30 27 C 5.8195 -4.1159 0.0 0
M  V30 28 C 3.9697 5.1282 0.0 0
M  V30 29 C 1.9438 4.5457 0.0 0
M  V30 30 C 1.5587 1.135 0.0 0
M  V30 31 C -0.1278 1.3862 0.0 0
M  V30 32 C 6.814 -4.2205 0.0 0
M  V30 33 C 5.2317 -4.9249 0.0 0
M  V30 34 O 4.9181 5.4453 0.0 0
M  V30 35 C 3.2482 5.8206 0.0 0
M  V30 36 C 2.2878 5.5419 0.0 0
M  V30 37 C -0.9405 1.9689 0.0 0
M  V30 38 C 7.2207 -5.134 0.0 0
M  V30 39 C 5.6384 -5.8385 0.0 0
M  V30 40 C -1.9356 2.0672 0.0 0
M  V30 41 C -1.3529 2.8799 0.0 0
M  V30 42 C 6.633 -5.943 0.0 0
M  V30 END ATOM
M  V30 BEGIN BOND
M  V30 1 2 1 2
M  V30 2 1 2 3
M  V30 3 1 2 4
M  V30 4 1 3 5
M  V30 5 2 4 6
M  V30 6 1 4 7
M  V30 7 1 5 8
M  V30 8 1 5 9
M  V30 9 1 5 10
M  V30 10 1 6 11
M  V30 11 1 12 6
M  V30 12 1 13 7
M  V30 13 1 8 14
M  V30 14 2 8 15
M  V30 15 1 12 16 CFG=3
M  V30 16 1 17 12
M  V30 17 1 13 18 CFG=1
M  V30 18 1 19 13
M  V30 19 1 14 20
M  V30 20 1 15 21
M  V30 21 1 16 22
M  V30 22 1 17 23
M  V30 23 1 17 24 CFG=1
M  V30 24 1 19 25 CFG=1
M  V30 25 1 19 26
M  V30 26 1 21 27
M  V30 27 1 22 28
M  V30 28 1 23 29
M  V30 29 1 24 30
M  V30 30 1 25 31
M  V30 31 2 27 32
M  V30 32 1 27 33
M  V30 33 1 28 34
M  V30 34 2 28 35
M  V30 35 2 29 36
M  V30 36 1 31 37
M  V30 37 1 32 38
M  V30 38 2 33 39
M  V30 39 1 37 40
M  V30 40 1 37 41
M  V30 41 2 38 42
M  V30 42 1 13 17
M  V30 43 2 20 21
M  V30 44 2 22 23
M  V30 45 1 25 30
M  V30 46 1 26 29
M  V30 47 1 35 36
M  V30 48 1 39 42
M  V30 49 1 40 41
M  V30 END BOND
M  V30 BEGIN COLLECTION
M  V30 MDLV30/STERAC1 ATOMS=(4 12 13 17 19)
M  V30 END COLLECTION
M  V30 END CTAB
M  END
>  <Molecule Name>


>  <status>
-

>  <cas>
916072-89-4

>  <name>
NALDEMEDINE

>  <ID>
1844

>  <Smiles>
CC(C)(c1nc(-c2ccccc2)no1)NC(C(C[C@]([C@H](Cc1ccc2O)N(CC3CC3)CC3)([C@]33c1c2O[C@H]31)O)=C1O)=O

$$$$

Actelion Java MolfileCreator 2.0

  0  0  0  0  0  0              0 V3000
M  V30 BEGIN CTAB
M  V30 COUNTS 32 36 0 0 0
M  V30 BEGIN ATOM
M  V30 1 O 0.866 0.0 0.0 0
M  V30 2 C 1.732 -0.5 0.0 0
M  V30 3 N 2.598 0.0 0.0 0
M  V30 4 C 1.732 -1.5 0.0 0
M  V30 5 C 2.598 1.0 0.0 0
M  V30 6 C 3.4641 -0.4999 0.0 0
M  V30 7 N 0.923 -2.0877 0.0 0
M  V30 8 C 2.541 -2.0877 0.0 0
M  V30 9 C 1.232 -3.0388 0.0 0
M  V30 10 C -0.028 -1.7787 0.0 0
M  V30 11 C 2.232 -3.0388 0.0 0
M  V30 12 N 0.732 -3.9048 0.0 0
M  V30 13 C -0.337 -0.8277 0.0 0
M  V30 14 C -0.837 -2.3665 0.0 0
M  V30 15 C 2.732 -3.9048 0.0 0
M  V30 16 C 1.232 -4.7708 0.0 0
M  V30 17 C -1.337 -0.8277 0.0 0
M  V30 18 C -1.646 -1.7787 0.0 0
M  V30 19 N 2.232 -4.7708 0.0 0
M  V30 20 N 0.732 -5.6369 0.0 0
M  V30 21 C 1.232 -6.5029 0.0 0
M  V30 22 N 0.732 -7.3689 0.0 0
M  V30 23 C 2.232 -6.5029 0.0 0
M  V30 24 C 1.232 -8.2349 0.0 0
M  V30 25 C 2.732 -7.3689 0.0 0
M  V30 26 C 2.232 -8.2349 0.0 0
M  V30 27 N 2.732 -9.101 0.0 0
M  V30 28 C 2.232 -9.967 0.0 0
M  V30 29 C 3.732 -9.101 0.0 0
M  V30 30 C 2.732 -10.833 0.0 0
M  V30 31 C 4.232 -9.967 0.0 0
M  V30 32 N 3.732 -10.833 0.0 0
M  V30 END ATOM
M  V30 BEGIN BOND
M  V30 1 2 1 2
M  V30 2 1 2 3
M  V30 3 1 2 4
M  V30 4 1 3 5
M  V30 5 1 3 6
M  V30 6 1 4 7
M  V30 7 2 4 8
M  V30 8 1 7 9
M  V30 9 1 7 10
M  V30 10 1 8 11
M  V30 11 1 9 12
M  V30 12 1 10 13
M  V30 13 1 10 14
M  V30 14 1 11 15
M  V30 15 2 12 16
M  V30 16 1 13 17
M  V30 17 1 14 18
M  V30 18 2 15 19
M  V30 19 1 16 20
M  V30 20 1 20 21
M  V30 21 2 21 22
M  V30 22 1 21 23
M  V30 23 1 22 24
M  V30 24 2 23 25
M  V30 25 2 24 26
M  V30 26 1 26 27
M  V30 27 1 27 28
M  V30 28 1 27 29
M  V30 29 1 28 30
M  V30 30 1 29 31
M  V30 31 1 30 32
M  V30 32 2 9 11
M  V30 33 1 16 19
M  V30 34 1 17 18
M  V30 35 1 25 26
M  V30 36 1 31 32
M  V30 END BOND
M  V30 END CTAB
M  END
>  <Molecule Name>


>  <status>
-

>  <cas>
1211441-98-3

>  <name>
RIBOCICLIB

>  <ID>
1845

>  <Smiles>
CN(C)C(c(n1C2CCCC2)cc2c1nc(Nc(cc1)ncc1N1CCNCC1)nc2)=O

$$$$

Actelion Java MolfileCreator 2.0

  0  0  0  0  0  0              0 V3000
M  V30 BEGIN CTAB
M  V30 COUNTS 13 14 0 0 0
M  V30 BEGIN ATOM
M  V30 1 O 0.866 0.0 0.0 0
M  V30 2 C 0.0 -0.5 0.0 0
M  V30 3 N -0.9135 -0.0932 0.0 0
M  V30 4 C -0.1045 -1.4945 0.0 0
M  V30 5 N -1.5826 -0.8364 0.0 0
M  V30 6 C -1.1214 0.8848 0.0 0
M  V30 7 C -1.0826 -1.7024 0.0 0
M  V30 8 C -0.3783 1.554 0.0 0
M  V30 9 C -2.0725 1.1939 0.0 0
M  V30 10 C -1.4894 -2.6159 0.0 0
M  V30 11 C -0.5862 2.5321 0.0 0
M  V30 12 C -2.2804 2.172 0.0 0
M  V30 13 C -1.5372 2.8411 0.0 0
M  V30 END ATOM
M  V30 BEGIN BOND
M  V30 1 2 1 2
M  V30 2 1 2 3
M  V30 3 1 2 4
M  V30 4 1 3 5
M  V30 5 1 3 6
M  V30 6 1 4 7
M  V30 7 2 6 8
M  V30 8 1 6 9
M  V30 9 1 7 10
M  V30 10 1 8 11
M  V30 11 2 9 12
M  V30 12 2 11 13
M  V30 13 2 5 7
M  V30 14 1 12 13
M  V30 END BOND
M  V30 END CTAB
M  END
>  <Molecule Name>


>  <status>
-

>  <cas>
89-25-8

>  <name>
EDARAVONE

>  <ID>
1846

>  <Smiles>
CC(CC1=O)=NN1c1ccccc1

$$$$

Actelion Java MolfileCreator 2.0

  0  0  0  0  0  0              0 V3000
M  V30 BEGIN CTAB
M  V30 COUNTS 60 66 0 0 0
M  V30 BEGIN ATOM
M  V30 1 S 2.5151 2.9289 0.0 0
M  V30 2 O 1.7635 1.627 0.0 0
M  V30 3 O 1.0118 2.929 0.0 0
M  V30 4 N 3.8171 2.1773 0.0 0
M  V30 5 C 2.5151 4.4323 0.0 0
M  V30 6 C 5.119 2.9289 0.0 0
M  V30 7 C 1.7634 5.7343 0.0 0
M  V30 8 C 3.2668 5.7343 0.0 0
M  V30 9 C 3.9673 4.0432 0.0 0
M  V30 10 O 5.119 4.4323 0.0 0
M  V30 11 C 6.421 2.1773 0.0 0 CFG=1
M  V30 12 N 5.358 1.1142 0.0 0
M  V30 13 C 7.8731 2.5664 0.0 0 CFG=2
M  V30 14 C 6.8101 3.6294 0.0 0
M  V30 15 C 5.7471 -0.3378 0.0 0
M  V30 16 C 9.3253 2.1773 0.0 0
M  V30 17 O 7.1992 -0.7269 0.0 0
M  V30 18 C 4.684 -1.4009 0.0 0 CFG=2
M  V30 19 F 9.7144 0.7251 0.0 0
M  V30 20 F 10.3883 3.2403 0.0 0
M  V30 21 N 4.9192 -2.8857 0.0 0
M  V30 22 C 3.1992 -1.1657 0.0 0 CFG=2
M  V30 23 C 6.1653 -3.8887 0.0 0
M  V30 24 C 3.5797 -3.5682 0.0 0
M  V30 25 C 2.5166 -2.5052 0.0 0 CFG=1
M  V30 26 C 2.5166 0.1737 0.0 0
M  V30 27 O 7.568 -3.3478 0.0 0
M  V30 28 C 5.9301 -5.3735 0.0 0 CFG=2
M  V30 29 O 1.2095 -3.074 0.0 0
M  V30 30 C 1.0153 0.2524 0.0 0
M  V30 31 N 7.0985 -6.3196 0.0 0
M  V30 32 C 4.5266 -5.9123 0.0 0
M  V30 33 C 0.7864 -4.5589 0.0 0
M  V30 34 C 6.8633 -7.8045 0.0 0
M  V30 35 C 5.0654 -7.3158 0.0 0
M  V30 36 C 3.1231 -6.4511 0.0 0
M  V30 37 C 3.9878 -4.5088 0.0 0
M  V30 38 N 0.6458 -3.074 0.0 0
M  V30 39 C -0.617 -5.0976 0.0 0
M  V30 40 O 8.0316 -8.7506 0.0 0
M  V30 41 O 5.4598 -8.3433 0.0 0
M  V30 42 C -0.1466 -2.1279 0.0 0
M  V30 43 N -1.7853 -4.1515 0.0 0
M  V30 44 C -0.8522 -6.5825 0.0 0
M  V30 45 C 5.2246 -9.8281 0.0 0 CFG=2
M  V30 46 C -1.5502 -2.6667 0.0 0
M  V30 47 C 0.0884 -0.643 0.0 0
M  V30 48 F -2.337 -6.3473 0.0 0
M  V30 49 F -1.7982 -7.7508 0.0 0
M  V30 50 C 0.3161 -7.5286 0.0 0
M  V30 51 C 3.8211 -10.3669 0.0 0 CFG=2
M  V30 52 C 4.9894 -11.313 0.0 0
M  V30 53 C -2.7185 -1.7206 0.0 0
M  V30 54 C -1.0798 0.303 0.0 0
M  V30 55 C 0.0809 -9.0134 0.0 0
M  V30 56 C 2.6527 -9.4208 0.0 0
M  V30 57 C -2.4833 -0.2357 0.0 0
M  V30 58 O -0.8446 1.7878 0.0 0
M  V30 59 C 1.2492 -9.9595 0.0 0
M  V30 60 C -2.013 2.7339 0.0 0
M  V30 END ATOM
M  V30 BEGIN BOND
M  V30 1 2 1 2
M  V30 2 2 1 3
M  V30 3 1 1 4
M  V30 4 1 1 5
M  V30 5 1 4 6
M  V30 6 1 5 7
M  V30 7 1 5 8
M  V30 8 1 5 9
M  V30 9 2 6 10
M  V30 10 1 11 6
M  V30 11 1 11 12 CFG=1
M  V30 12 1 13 11
M  V30 13 1 11 14
M  V30 14 1 12 15
M  V30 15 1 13 16 CFG=3
M  V30 16 2 15 17
M  V30 17 1 18 15 CFG=3
M  V30 18 1 16 19
M  V30 19 1 16 20
M  V30 20 1 18 21
M  V30 21 1 22 18
M  V30 22 1 21 23
M  V30 23 1 21 24
M  V30 24 1 25 22
M  V30 25 1 22 26 CFG=3
M  V30 26 2 23 27
M  V30 27 1 28 23
M  V30 28 1 25 29 CFG=1
M  V30 29 1 26 30
M  V30 30 1 28 31
M  V30 31 1 28 32 CFG=3
M  V30 32 1 29 33
M  V30 33 1 31 34
M  V30 34 1 32 35
M  V30 35 1 32 36
M  V30 36 1 32 37
M  V30 37 2 33 38
M  V30 38 1 33 39
M  V30 39 2 34 40
M  V30 40 1 34 41
M  V30 41 1 38 42
M  V30 42 2 39 43
M  V30 43 1 39 44
M  V30 44 1 45 41
M  V30 45 1 42 46
M  V30 46 2 42 47
M  V30 47 1 44 48
M  V30 48 1 44 49
M  V30 49 1 44 50
M  V30 50 1 51 45
M  V30 51 1 45 52 CFG=1
M  V30 52 2 46 53
M  V30 53 1 47 54
M  V30 54 1 50 55
M  V30 55 1 51 56
M  V30 56 1 53 57
M  V30 57 1 54 58
M  V30 58 1 55 59
M  V30 59 1 58 60
M  V30 60 1 7 8
M  V30 61 1 13 14
M  V30 62 1 24 25
M  V30 63 1 43 46
M  V30 64 1 51 52 CFG=3
M  V30 65 2 54 57
M  V30 66 1 56 59
M  V30 END BOND
M  V30 BEGIN COLLECTION
M  V30 MDLV30/STERAC1 ATOMS=(8 11 13 18 22 25 28 45 51)
M  V30 END COLLECTION
M  V30 END CTAB
M  END
>  <Molecule Name>


>  <status>
-

>  <cas>
1535212-07-7

>  <name>
VOXILAPREVIR

>  <ID>
1847

>  <Smiles>
CC[C@@H]([C@@H](C1)Oc2nc3cc(OC)ccc3nc2C(CCCC[C@@H](C2)[C@H]2OC(N[C@@H]2C(C)(C)C)=O)(F)F)[C@H](C(N[C@@](C3)([C@H]3C(F)F)C(NS(C3(C)CC3)(=O)=O)=O)=O)N1C2=O

$$$$

Actelion Java MolfileCreator 2.0

  0  0  0  0  0  0              0 V3000
M  V30 BEGIN CTAB
M  V30 COUNTS 30 32 0 0 0
M  V30 BEGIN ATOM
M  V30 1 O 2.598 1.0 0.0 0
M  V30 2 C 2.598 0.0 0.0 0
M  V30 3 O 3.4641 -0.5 0.0 0
M  V30 4 C 1.732 -0.5 0.0 0 CFG=2
M  V30 5 C 4.3301 0.0 0.0 0 CFG=2
M  V30 6 N 1.732 -1.5 0.0 0
M  V30 7 C 0.866 0.0 0.0 0
M  V30 8 C 5.1961 -0.4999 0.0 0 CFG=2
M  V30 9 C 4.3301 0.9999 0.0 0
M  V30 10 C 0.866 1.0 0.0 0
M  V30 11 C 0.0 -0.5 0.0 0
M  V30 12 C 6.0621 0.0 0.0 0
M  V30 13 C 5.1961 -1.4999 0.0 0
M  V30 14 C 5.1961 1.4999 0.0 0 CFG=2
M  V30 15 N 6.0621 1.0 0.0 0
M  V30 16 C 4.3301 -1.9999 0.0 0
M  V30 17 C 5.1961 2.4999 0.0 0
M  V30 18 C 6.9282 1.5 0.0 0
M  V30 19 C 3.4641 -1.4999 0.0 0
M  V30 20 C 4.3301 -2.9999 0.0 0
M  V30 21 C 6.0621 3.0 0.0 0
M  V30 22 C 4.3301 2.9999 0.0 0
M  V30 23 C 6.9282 2.5 0.0 0
M  V30 24 C 6.0621 3.9999 0.0 0
M  V30 25 C 4.3301 3.9999 0.0 0
M  V30 26 C 5.1961 4.4999 0.0 0
M  V30 27 O 3.4641 4.4999 0.0 0
M  V30 28 O 5.1961 5.5 0.0 0
M  V30 29 C 2.598 3.9999 0.0 0
M  V30 30 C 4.3301 5.9999 0.0 0
M  V30 END ATOM
M  V30 BEGIN BOND
M  V30 1 2 1 2
M  V30 2 1 2 3
M  V30 3 1 4 2
M  V30 4 1 5 3 CFG=1
M  V30 5 1 4 6 CFG=3
M  V30 6 1 4 7
M  V30 7 1 8 5
M  V30 8 1 5 9
M  V30 9 1 7 10
M  V30 10 1 7 11
M  V30 11 1 8 12
M  V30 12 1 8 13 CFG=3
M  V30 13 1 14 9
M  V30 14 1 12 15
M  V30 15 1 13 16
M  V30 16 1 14 17
M  V30 17 1 15 18
M  V30 18 1 16 19
M  V30 19 1 16 20
M  V30 20 2 17 21
M  V30 21 1 17 22
M  V30 22 1 18 23
M  V30 23 1 21 24
M  V30 24 2 22 25
M  V30 25 2 24 26
M  V30 26 1 25 27
M  V30 27 1 26 28
M  V30 28 1 27 29
M  V30 29 1 28 30
M  V30 30 1 14 15 CFG=1
M  V30 31 1 21 23
M  V30 32 1 25 26
M  V30 END BOND
M  V30 BEGIN COLLECTION
M  V30 MDLV30/STERAC1 ATOMS=(4 4 5 8 14)
M  V30 END COLLECTION
M  V30 END CTAB
M  END
>  <Molecule Name>


>  <status>
-

>  <cas>
1025504-45-3

>  <name>
VALBENAZINE

>  <ID>
1848

>  <Smiles>
CC(C)C[C@@H](CN(CC1)[C@@H](C2)c(cc3OC)c1cc3OC)[C@H]2OC([C@@H](C(C)C)N)=O

$$$$

Actelion Java MolfileCreator 2.0

  0  0  0  0  0  0              0 V3000
M  V30 BEGIN CTAB
M  V30 COUNTS 23 25 0 0 0
M  V30 BEGIN ATOM
M  V30 1 O 7.7942 0.9999 0.0 0
M  V30 2 C 6.9282 1.4999 0.0 0
M  V30 3 C 8.6602 1.4999 0.0 0
M  V30 4 C 6.9282 2.4999 0.0 0
M  V30 5 C 6.0621 0.9999 0.0 0
M  V30 6 O 7.7942 2.9999 0.0 0
M  V30 7 C 6.0621 2.9999 0.0 0
M  V30 8 C 5.1961 1.4999 0.0 0
M  V30 9 C 7.7942 3.9999 0.0 0
M  V30 10 C 5.1961 2.4999 0.0 0
M  V30 11 C 4.3301 0.9999 0.0 0 CFG=1
M  V30 12 C 4.3301 2.9999 0.0 0
M  V30 13 N 3.4641 1.4999 0.0 0
M  V30 14 C 4.3301 0.0 0.0 0
M  V30 15 C 3.4641 2.4999 0.0 0
M  V30 16 C 2.598 0.9999 0.0 0
M  V30 17 C 3.4641 -0.4999 0.0 0 CFG=1
M  V30 18 C 2.598 0.0 0.0 0 CFG=1
M  V30 19 O 3.4641 -1.5 0.0 0
M  V30 20 C 1.732 -0.5 0.0 0
M  V30 21 C 0.866 0.0 0.0 0
M  V30 22 C 0.866 1.0 0.0 0
M  V30 23 C 0.0 -0.5 0.0 0
M  V30 END ATOM
M  V30 BEGIN BOND
M  V30 1 1 1 2
M  V30 2 1 1 3
M  V30 3 2 2 4
M  V30 4 1 2 5
M  V30 5 1 4 6
M  V30 6 1 4 7
M  V30 7 2 5 8
M  V30 8 1 6 9
M  V30 9 2 7 10
M  V30 10 1 11 8
M  V30 11 1 10 12
M  V30 12 1 11 13 CFG=3
M  V30 13 1 11 14
M  V30 14 1 12 15
M  V30 15 1 13 16
M  V30 16 1 17 14
M  V30 17 1 18 16
M  V30 18 1 17 19 CFG=3
M  V30 19 1 18 20 CFG=1
M  V30 20 1 20 21
M  V30 21 1 21 22
M  V30 22 1 21 23
M  V30 23 1 8 10
M  V30 24 1 13 15
M  V30 25 1 17 18
M  V30 END BOND
M  V30 BEGIN COLLECTION
M  V30 MDLV30/STERAC1 ATOMS=(3 11 17 18)
M  V30 END COLLECTION
M  V30 END CTAB
M  END
>  <Molecule Name>


>  <status>
-

>  <cas>
3466-75-9

>  <name>
M VALBENAZINE

>  <ID>
1849

>  <Smiles>
CC(C)C[C@@H](CN(CCc1c2)[C@@H](C3)c1cc(OC)c2OC)[C@H]3O

$$$$

Actelion Java MolfileCreator 2.0

  0  0  0  0  0  0              0 V3000
M  V30 BEGIN CTAB
M  V30 COUNTS 58 64 0 0 0
M  V30 BEGIN ATOM
M  V30 1 S 2.539 3.4482 0.0 0
M  V30 2 O 2.039 2.5822 0.0 0
M  V30 3 O 1.539 3.4483 0.0 0
M  V30 4 N 3.405 2.9482 0.0 0
M  V30 5 C 2.539 4.4482 0.0 0
M  V30 6 C 3.405 1.9482 0.0 0
M  V30 7 C 2.039 5.3143 0.0 0
M  V30 8 C 3.039 5.3143 0.0 0
M  V30 9 C 3.5049 4.1894 0.0 0
M  V30 10 O 2.539 1.4482 0.0 0
M  V30 11 C 4.2711 1.4482 0.0 0 CFG=1
M  V30 12 N 3.564 0.7411 0.0 0
M  V30 13 C 5.237 1.7071 0.0 0 CFG=2
M  V30 14 C 4.5299 2.4142 0.0 0
M  V30 15 C 3.8228 -0.2247 0.0 0
M  V30 16 C 6.2029 1.4482 0.0 0
M  V30 17 O 4.7887 -0.4835 0.0 0
M  V30 18 C 3.1157 -0.9318 0.0 0 CFG=2
M  V30 19 F 6.4617 0.4823 0.0 0
M  V30 20 F 6.91 2.1553 0.0 0
M  V30 21 N 2.128 -0.7754 0.0 0
M  V30 22 C 3.2721 -1.9195 0.0 0
M  V30 23 C 1.4608 0.0534 0.0 0
M  V30 24 C 1.674 -1.6664 0.0 0
M  V30 25 C 2.3811 -2.3735 0.0 0 CFG=1
M  V30 26 O 1.8206 0.9865 0.0 0
M  V30 27 C 0.4731 -0.1029 0.0 0 CFG=2
M  V30 28 O 1.7527 -3.3679 0.0 0
M  V30 29 N -0.1561 0.6741 0.0 0
M  V30 30 C 0.1148 -1.0365 0.0 0
M  V30 31 C 1.0151 -3.5244 0.0 0
M  V30 32 C -1.1438 0.5177 0.0 0
M  V30 33 C 1.0484 -1.3949 0.0 0
M  V30 34 C -0.2435 -1.9701 0.0 0
M  V30 35 C -0.8187 -0.6781 0.0 0
M  V30 36 N 2.1262 -3.4065 0.0 0
M  V30 37 C 0.6567 -4.458 0.0 0
M  V30 38 O -1.7731 1.2948 0.0 0
M  V30 39 O -1.5021 -0.4158 0.0 0
M  V30 40 C 2.6321 -4.1451 0.0 0
M  V30 41 N 1.286 -5.2351 0.0 0
M  V30 42 C -0.3309 -4.6144 0.0 0
M  V30 43 C -2.4898 -0.5722 0.0 0 CFG=2
M  V30 44 C 2.2737 -5.0787 0.0 0
M  V30 45 C 3.6197 -3.9887 0.0 0
M  V30 46 F -1.108 -5.2437 0.0 0
M  V30 47 F -0.1745 -5.6021 0.0 0
M  V30 48 C -0.9602 -3.8372 0.0 0
M  V30 49 C -2.8482 -1.5058 0.0 0 CFG=1
M  V30 50 C -3.267 0.057 0.0 0
M  V30 51 C 2.903 -5.8558 0.0 0
M  V30 52 C 4.2491 -4.7658 0.0 0
M  V30 53 C -1.9479 -3.9937 0.0 0
M  V30 54 O -2.2189 -2.283 0.0 0
M  V30 55 C -3.8468 -1.4535 0.0 0
M  V30 56 C -4.1056 -0.4875 0.0 0
M  V30 57 C 3.8907 -5.6994 0.0 0
M  V30 58 C -2.5772 -3.2165 0.0 0
M  V30 END ATOM
M  V30 BEGIN BOND
M  V30 1 2 1 2
M  V30 2 2 1 3
M  V30 3 1 1 4
M  V30 4 1 1 5
M  V30 5 1 4 6
M  V30 6 1 5 7
M  V30 7 1 5 8
M  V30 8 1 5 9
M  V30 9 2 6 10
M  V30 10 1 11 6
M  V30 11 1 11 12 CFG=1
M  V30 12 1 13 11
M  V30 13 1 11 14
M  V30 14 1 12 15
M  V30 15 1 13 16 CFG=3
M  V30 16 2 15 17
M  V30 17 1 18 15 CFG=1
M  V30 18 1 16 19
M  V30 19 1 16 20
M  V30 20 1 18 21
M  V30 21 1 18 22
M  V30 22 1 21 23
M  V30 23 1 21 24
M  V30 24 1 25 22
M  V30 25 2 23 26
M  V30 26 1 27 23
M  V30 27 1 25 28 CFG=3
M  V30 28 1 27 29
M  V30 29 1 27 30 CFG=1
M  V30 30 1 28 31
M  V30 31 1 29 32
M  V30 32 1 30 33
M  V30 33 1 30 34
M  V30 34 1 30 35
M  V30 35 2 31 36
M  V30 36 1 31 37
M  V30 37 2 32 38
M  V30 38 1 32 39
M  V30 39 1 36 40
M  V30 40 2 37 41
M  V30 41 1 37 42
M  V30 42 1 43 39 CFG=3
M  V30 43 1 40 44
M  V30 44 2 40 45
M  V30 45 1 42 46
M  V30 46 1 42 47
M  V30 47 1 42 48
M  V30 48 1 49 43
M  V30 49 1 43 50
M  V30 50 2 44 51
M  V30 51 1 45 52
M  V30 52 2 48 53
M  V30 53 1 49 54 CFG=1
M  V30 54 1 49 55
M  V30 55 1 50 56
M  V30 56 1 51 57
M  V30 57 1 53 58
M  V30 58 1 7 8
M  V30 59 1 13 14
M  V30 60 1 24 25
M  V30 61 1 41 44
M  V30 62 2 52 57
M  V30 63 1 54 58
M  V30 64 1 55 56
M  V30 END BOND
M  V30 BEGIN COLLECTION
M  V30 MDLV30/STERAC1 ATOMS=(7 11 13 18 25 27 43 49)
M  V30 END COLLECTION
M  V30 END CTAB
M  END
>  <Molecule Name>


>  <status>
-

>  <cas>
1365970-03-1

>  <name>
GLECAPREVIR

>  <ID>
1850

>  <Smiles>
CC(C)(C)[C@H](C(N(C[C@H](C1)Oc2nc3ccccc3nc2C(/C=C/CO[C@@H](CCC2)[C@H]2O2)(F)F)[C@H]1C(N[C@@](C1)([C@H]1C(F)F)C(NS(C1(C)CC1)(=O)=O)=O)=O)=O)NC2=O

$$$$

Actelion Java MolfileCreator 2.0

  0  0  0  0  0  0              0 V3000
M  V30 BEGIN CTAB
M  V30 COUNTS 80 89 0 0 0
M  V30 BEGIN ATOM
M  V30 1 F 15.0571 -10.6827 0.0 0
M  V30 2 C 13.6867 -10.0726 0.0 0
M  V30 3 C 13.5299 -8.5808 0.0 0
M  V30 4 C 12.4732 -10.9543 0.0 0
M  V30 5 N 14.7435 -7.6992 0.0 0
M  V30 6 C 12.1596 -7.9707 0.0 0
M  V30 7 C 11.1029 -10.3442 0.0 0
M  V30 8 C 16.1138 -8.3093 0.0 0
M  V30 9 C 14.5867 -6.2074 0.0 0
M  V30 10 F 12.0028 -6.479 0.0 0
M  V30 11 C 10.9461 -8.8524 0.0 0
M  V30 12 N 9.8894 -11.2259 0.0 0
M  V30 13 C 17.3273 -7.4276 0.0 0
M  V30 14 C 15.8002 -5.3257 0.0 0
M  V30 15 C 8.4628 -10.7624 0.0 0 CFG=2
M  V30 16 C 9.8894 -12.7259 0.0 0 CFG=2
M  V30 17 C 17.1705 -5.9358 0.0 0
M  V30 18 C 7.9993 -9.3358 0.0 0
M  V30 19 C 7.5811 -11.9759 0.0 0
M  V30 20 C 11.1029 -13.6076 0.0 0
M  V30 21 C 8.4628 -13.1894 0.0 0
M  V30 22 C 18.384 -5.0541 0.0 0
M  V30 23 C 6.532 -9.0239 0.0 0
M  V30 24 C 9.003 -8.2211 0.0 0
M  V30 25 C 10.9461 -15.0993 0.0 0
M  V30 26 C 12.4732 -12.9975 0.0 0
M  V30 27 C 19.7544 -5.6642 0.0 0
M  V30 28 C 18.2273 -3.5624 0.0 0
M  V30 29 F 5.5283 -10.1386 0.0 0
M  V30 30 C 6.0685 -7.5973 0.0 0
M  V30 31 C 8.5394 -6.7945 0.0 0
M  V30 32 F 9.5758 -15.7094 0.0 0
M  V30 33 C 12.1596 -15.981 0.0 0
M  V30 34 C 13.6867 -13.8791 0.0 0
M  V30 35 C 20.9679 -4.7826 0.0 0
M  V30 36 C 19.4408 -2.6807 0.0 0
M  V30 37 C 7.0722 -6.4826 0.0 0
M  V30 38 N 9.2894 -5.4954 0.0 0
M  V30 39 C 13.5299 -15.3709 0.0 0
M  V30 40 N 15.154 -13.5673 0.0 0
M  V30 41 C 20.8111 -3.2908 0.0 0
M  V30 42 N 6.9154 -4.9908 0.0 0
M  V30 43 C 8.2857 -4.3807 0.0 0
M  V30 44 N 14.9003 -15.981 0.0 0
M  V30 45 C 15.904 -14.8663 0.0 0
M  V30 46 F 22.0246 -2.4091 0.0 0
M  V30 47 C 8.5976 -2.9135 0.0 0 CFG=2
M  V30 48 C 17.3957 -15.0231 0.0 0 CFG=2
M  V30 49 N 9.9679 -2.3034 0.0 0
M  V30 50 C 7.5939 -1.7988 0.0 0
M  V30 51 N 18.1457 -16.3221 0.0 0
M  V30 52 C 18.3994 -13.9084 0.0 0
M  V30 53 C 11.267 -3.0534 0.0 0
M  V30 54 C 9.8111 -0.8116 0.0 0
M  V30 55 C 8.3439 -0.4997 0.0 0
M  V30 56 C 17.5356 -17.6924 0.0 0
M  V30 57 C 19.613 -16.0103 0.0 0
M  V30 58 C 19.7698 -14.5185 0.0 0
M  V30 59 O 11.267 -4.5534 0.0 0
M  V30 60 C 12.566 -2.3034 0.0 0 CFG=2
M  V30 61 O 16.0439 -17.8492 0.0 0
M  V30 62 C 18.4173 -18.906 0.0 0 CFG=2
M  V30 63 N 12.566 -0.8034 0.0 0
M  V30 64 C 13.865 -3.0534 0.0 0 CFG=1
M  V30 65 N 17.8072 -20.2763 0.0 0
M  V30 66 C 19.9091 -18.7492 0.0 0 CFG=1
M  V30 67 C 13.865 -0.0534 0.0 0
M  V30 68 O 13.865 -4.5534 0.0 0
M  V30 69 C 15.1641 -2.3034 0.0 0
M  V30 70 C 16.3154 -20.4331 0.0 0
M  V30 71 O 20.5192 -17.3789 0.0 0
M  V30 72 C 20.7908 -19.9627 0.0 0
M  V30 73 O 15.1641 -0.8034 0.0 0
M  V30 74 O 13.865 1.4465 0.0 0
M  V30 75 C 12.566 -5.3034 0.0 0
M  V30 76 O 15.4338 -19.2196 0.0 0
M  V30 77 O 15.7053 -21.8034 0.0 0
M  V30 78 C 22.011 -17.2221 0.0 0
M  V30 79 C 15.1641 2.1965 0.0 0
M  V30 80 C 14.2135 -21.9602 0.0 0
M  V30 END ATOM
M  V30 BEGIN BOND
M  V30 1 1 1 2
M  V30 2 2 2 3
M  V30 3 1 2 4
M  V30 4 1 3 5
M  V30 5 1 3 6
M  V30 6 2 4 7
M  V30 7 1 5 8
M  V30 8 1 5 9
M  V30 9 1 6 10
M  V30 10 2 6 11
M  V30 11 1 7 12
M  V30 12 1 8 13
M  V30 13 1 9 14
M  V30 14 1 15 12
M  V30 15 1 16 12
M  V30 16 1 13 17
M  V30 17 1 15 18 CFG=1
M  V30 18 1 15 19
M  V30 19 1 16 20 CFG=3
M  V30 20 1 16 21
M  V30 21 1 17 22
M  V30 22 2 18 23
M  V30 23 1 18 24
M  V30 24 2 20 25
M  V30 25 1 20 26
M  V30 26 2 22 27
M  V30 27 1 22 28
M  V30 28 1 23 29
M  V30 29 1 23 30
M  V30 30 2 24 31
M  V30 31 1 25 32
M  V30 32 1 25 33
M  V30 33 2 26 34
M  V30 34 1 27 35
M  V30 35 2 28 36
M  V30 36 2 30 37
M  V30 37 1 31 38
M  V30 38 2 33 39
M  V30 39 1 34 40
M  V30 40 2 35 41
M  V30 41 1 37 42
M  V30 42 2 38 43
M  V30 43 1 39 44
M  V30 44 2 40 45
M  V30 45 1 41 46
M  V30 46 1 47 43 CFG=1
M  V30 47 1 48 45 CFG=1
M  V30 48 1 47 49
M  V30 49 1 47 50
M  V30 50 1 48 51
M  V30 51 1 48 52
M  V30 52 1 49 53
M  V30 53 1 49 54
M  V30 54 1 50 55
M  V30 55 1 51 56
M  V30 56 1 51 57
M  V30 57 1 52 58
M  V30 58 2 53 59
M  V30 59 1 60 53
M  V30 60 2 56 61
M  V30 61 1 62 56
M  V30 62 1 60 63 CFG=3
M  V30 63 1 64 60
M  V30 64 1 62 65 CFG=1
M  V30 65 1 66 62
M  V30 66 1 63 67
M  V30 67 1 64 68 CFG=3
M  V30 68 1 64 69
M  V30 69 1 65 70
M  V30 70 1 66 71 CFG=1
M  V30 71 1 66 72
M  V30 72 2 67 73
M  V30 73 1 67 74
M  V30 74 1 68 75
M  V30 75 2 70 76
M  V30 76 1 70 77
M  V30 77 1 71 78
M  V30 78 1 74 79
M  V30 79 1 77 80
M  V30 80 1 7 11
M  V30 81 1 14 17
M  V30 82 1 19 21
M  V30 83 1 31 37
M  V30 84 1 34 39
M  V30 85 1 36 41
M  V30 86 1 42 43
M  V30 87 1 44 45
M  V30 88 1 54 55
M  V30 89 1 57 58
M  V30 END BOND
M  V30 BEGIN COLLECTION
M  V30 MDLV30/STERAC1 ATOMS=(8 15 16 47 48 60 62 64 66)
M  V30 END COLLECTION
M  V30 END CTAB
M  END
>  <Molecule Name>


>  <status>
-

>  <cas>
1353900-92-1

>  <name>
PIBRENTASVIR

>  <ID>
1851

>  <Smiles>
C[C@@H]([C@H](C(N(CCC1)[C@H]1c([nH]c1c2)nc1cc([C@H](CC[C@H]1c(cc3nc([C@@H](CCC4)N4C([C@@H]([C@H](C)OC)NC(OC)=O)=O)[nH]c3c3)c3F)N1c(cc1F)cc(F)c1N(CC1)CCC1c(cc1)ccc1F)c2F)=O)NC(OC)=O)OC

$$$$

Actelion Java MolfileCreator 2.0

  0  0  0  0  0  0              0 V3000
M  V30 BEGIN CTAB
M  V30 COUNTS 44 52 0 0 0
M  V30 BEGIN ATOM
M  V30 1 O 9.1426 1.7461 0.0 0
M  V30 2 C 8.3994 2.4152 0.0 0
M  V30 3 N 8.504 3.4098 0.0 0
M  V30 4 C 7.4213 2.2073 0.0 0
M  V30 5 C 7.5904 3.8165 0.0 0 CFG=1
M  V30 6 C 6.9213 1.3413 0.0 0
M  V30 7 C 6.9213 3.0733 0.0 0
M  V30 8 O 7.3825 4.7946 0.0 0
M  V30 9 C 5.9213 1.3413 0.0 0
M  V30 10 C 7.2303 0.3902 0.0 0
M  V30 11 C 5.9213 3.0733 0.0 0
M  V30 12 N 5.6123 0.3902 0.0 0
M  V30 13 C 5.4213 2.2073 0.0 0
M  V30 14 C 6.4213 -0.1974 0.0 0
M  V30 15 C 8.1439 -0.0164 0.0 0
M  V30 16 C 5.2522 3.8165 0.0 0
M  V30 17 C 4.3301 0.0 0.0 0 CFG=2
M  V30 18 N 4.4432 2.4152 0.0 0
M  V30 19 C 6.5258 -1.192 0.0 0
M  V30 20 C 8.2484 -1.0109 0.0 0
M  V30 21 C 4.3386 3.4098 0.0 0
M  V30 22 C 5.3567 4.811 0.0 0
M  V30 23 O 4.3301 0.9999 0.0 0
M  V30 24 C 3.4641 -0.5 0.0 0
M  V30 25 C 3.4641 1.4999 0.0 0 CFG=1
M  V30 26 C 7.4394 -1.5987 0.0 0
M  V30 27 C 3.5296 3.9975 0.0 0
M  V30 28 C 4.5477 5.3988 0.0 0
M  V30 29 C 2.598 0.0 0.0 0 CFG=2
M  V30 30 C 2.598 0.9999 0.0 0 CFG=1
M  V30 31 C 2.8687 2.3034 0.0 0
M  V30 32 C 3.6341 4.9921 0.0 0
M  V30 33 N 1.732 -0.5 0.0 0
M  V30 34 O 1.732 1.4999 0.0 0
M  V30 35 C 1.732 -1.5 0.0 0
M  V30 36 C 0.866 0.0 0.0 0
M  V30 37 C 0.866 0.9999 0.0 0
M  V30 38 O 2.598 -2.0 0.0 0
M  V30 39 C 0.866 -2.0 0.0 0
M  V30 40 C 0.866 -3.0 0.0 0
M  V30 41 C 0.0 -1.5 0.0 0
M  V30 42 C 0.0 -3.5 0.0 0
M  V30 43 C -0.866 -2.0 0.0 0
M  V30 44 C -0.866 -3.0 0.0 0
M  V30 END ATOM
M  V30 BEGIN BOND
M  V30 1 2 1 2
M  V30 2 1 2 3
M  V30 3 1 2 4
M  V30 4 1 5 3
M  V30 5 2 4 6
M  V30 6 1 4 7
M  V30 7 1 5 8 CFG=1
M  V30 8 1 6 9
M  V30 9 1 6 10
M  V30 10 2 7 11
M  V30 11 1 9 12
M  V30 12 2 9 13
M  V30 13 2 10 14
M  V30 14 1 10 15
M  V30 15 1 11 16
M  V30 16 1 17 12
M  V30 17 1 13 18
M  V30 18 1 14 19
M  V30 19 2 15 20
M  V30 20 2 16 21
M  V30 21 1 16 22
M  V30 22 1 17 23 CFG=1
M  V30 23 1 17 24
M  V30 24 1 25 18
M  V30 25 2 19 26
M  V30 26 1 21 27
M  V30 27 2 22 28
M  V30 28 1 29 24
M  V30 29 1 30 25
M  V30 30 1 25 31 CFG=3
M  V30 31 2 27 32
M  V30 32 1 29 33 CFG=1
M  V30 33 1 30 34 CFG=1
M  V30 34 1 33 35
M  V30 35 1 33 36
M  V30 36 1 34 37
M  V30 37 2 35 38
M  V30 38 1 35 39
M  V30 39 2 39 40
M  V30 40 1 39 41
M  V30 41 1 40 42
M  V30 42 2 41 43
M  V30 43 2 42 44
M  V30 44 1 5 7
M  V30 45 1 11 13
M  V30 46 1 12 14
M  V30 47 1 18 21
M  V30 48 1 20 26
M  V30 49 1 23 25
M  V30 50 1 28 32
M  V30 51 1 29 30
M  V30 52 1 43 44
M  V30 END BOND
M  V30 BEGIN COLLECTION
M  V30 MDLV30/STERAC1 ATOMS=(5 5 17 25 29 30)
M  V30 END COLLECTION
M  V30 END CTAB
M  END
>  <Molecule Name>


>  <status>
-

>  <cas>
179237-49-1

>  <name>
M MIDOSTAURIN

>  <ID>
1852

>  <Smiles>
C[C@@]1([C@@H]([C@@H](C2)N(C)C(c3ccccc3)=O)OC)O[C@H]2n2c3c4n1c(cccc1)c1c4c([C@H](NC1=O)O)c1c3c1c2cccc1

$$$$

Actelion Java MolfileCreator 2.0

  0  0  0  0  0  0              0 V3000
M  V30 BEGIN CTAB
M  V30 COUNTS 34 36 0 0 0
M  V30 BEGIN ATOM
M  V30 1 O 12.9903 0.0 0.0 0
M  V30 2 C 12.9903 0.9999 0.0 0
M  V30 3 N 13.8564 1.4999 0.0 0
M  V30 4 C 12.1243 1.4999 0.0 0
M  V30 5 C 13.8564 2.4999 0.0 0
M  V30 6 N 11.2583 0.9999 0.0 0
M  V30 7 C 12.1243 2.4999 0.0 0
M  V30 8 N 12.9903 2.9999 0.0 0
M  V30 9 N 14.7224 2.9999 0.0 0
M  V30 10 C 11.2583 0.0 0.0 0
M  V30 11 C 10.3923 1.4999 0.0 0 CFG=2
M  V30 12 N 11.2583 2.9999 0.0 0
M  V30 13 O 12.1243 -0.5 0.0 0
M  V30 14 C 10.3923 2.4999 0.0 0
M  V30 15 C 9.5262 0.9999 0.0 0
M  V30 16 N 8.6602 1.4999 0.0 0
M  V30 17 C 7.7942 0.9999 0.0 0
M  V30 18 C 6.9282 1.4999 0.0 0
M  V30 19 C 7.7942 0.0 0.0 0
M  V30 20 C 6.0621 0.9999 0.0 0
M  V30 21 C 6.9282 -0.5 0.0 0
M  V30 22 C 6.0621 0.0 0.0 0
M  V30 23 C 5.1961 -0.5 0.0 0
M  V30 24 O 5.1961 -1.4999 0.0 0
M  V30 25 N 4.3301 0.0 0.0 0
M  V30 26 C 3.4641 -0.5 0.0 0 CFG=2
M  V30 27 C 3.4641 -1.5 0.0 0
M  V30 28 C 2.598 0.0 0.0 0
M  V30 29 O 2.598 -1.9999 0.0 0
M  V30 30 O 4.3301 -2.0 0.0 0 CHG=-1
M  V30 31 C 1.732 -0.5 0.0 0
M  V30 32 C 0.866 0.0 0.0 0
M  V30 33 O 0.866 1.0 0.0 0
M  V30 34 O 0.0 -0.5 0.0 0 CHG=-1
M  V30 END ATOM
M  V30 BEGIN BOND
M  V30 1 2 1 2
M  V30 2 1 2 3
M  V30 3 1 2 4
M  V30 4 2 3 5
M  V30 5 1 4 6
M  V30 6 2 4 7
M  V30 7 1 5 8
M  V30 8 1 5 9
M  V30 9 1 6 10
M  V30 10 1 11 6
M  V30 11 1 7 12
M  V30 12 2 10 13
M  V30 13 1 11 14
M  V30 14 1 11 15 CFG=1
M  V30 15 1 15 16
M  V30 16 1 16 17
M  V30 17 2 17 18
M  V30 18 1 17 19
M  V30 19 1 18 20
M  V30 20 2 19 21
M  V30 21 2 20 22
M  V30 22 1 22 23
M  V30 23 2 23 24
M  V30 24 1 23 25
M  V30 25 1 26 25 CFG=3
M  V30 26 1 26 27
M  V30 27 1 26 28
M  V30 28 2 27 29
M  V30 29 1 27 30
M  V30 30 1 28 31
M  V30 31 1 31 32
M  V30 32 2 32 33
M  V30 33 1 32 34
M  V30 34 1 7 8
M  V30 35 1 12 14
M  V30 36 1 21 22
M  V30 END BOND
M  V30 BEGIN COLLECTION
M  V30 MDLV30/STERAC1 ATOMS=(2 11 26)
M  V30 END COLLECTION
M  V30 END CTAB
M  END
>  <Molecule Name>


>  <status>
-

>  <cas>
68538-85-2

>  <name>
LEVOLEUCOVORIN

>  <ID>
1853

>  <Smiles>
NC(NC(NC[C@@H]1CNc(cc2)ccc2C(N[C@@H](CCC([O-])=O)C([O-])=O)=O)=C2N1C=O)=NC2=O

$$$$

Actelion Java MolfileCreator 2.0

  0  0  0  0  0  0              0 V3000
M  V30 BEGIN CTAB
M  V30 COUNTS 87 93 0 0 0
M  V30 BEGIN ATOM
M  V30 1 I 1.5355 -13.2776 0.0 0
M  V30 2 C 2.4821 -12.9551 0.0 0
M  V30 3 C 3.2347 -13.6136 0.0 0
M  V30 4 C 2.676 -11.9741 0.0 0
M  V30 5 O 3.0407 -14.5946 0.0 0
M  V30 6 C 4.1812 -13.2911 0.0 0
M  V30 7 C 3.6226 -11.6516 0.0 0
M  V30 8 C 1.9234 -11.3156 0.0 0
M  V30 9 C 2.0941 -14.9171 0.0 0 CFG=2
M  V30 10 O 4.9338 -13.9495 0.0 0
M  V30 11 C 4.3752 -12.3101 0.0 0
M  V30 12 C 3.8166 -10.6706 0.0 0
M  V30 13 O 1.3415 -14.2586 0.0 0
M  V30 14 C 1.9002 -15.8981 0.0 0 CFG=2
M  V30 15 C 5.8804 -13.627 0.0 0
M  V30 16 O 5.3217 -11.9875 0.0 0
M  V30 17 S 4.7631 -10.348 0.0 0
M  V30 18 O 3.064 -10.0121 0.0 0
M  V30 19 C 0.395 -14.5812 0.0 0 CFG=2
M  V30 20 O 2.6528 -16.5566 0.0 0
M  V30 21 C 0.9536 -16.2207 0.0 0 CFG=1
M  V30 22 C 5.5157 -11.0065 0.0 0
M  V30 23 C 4.9571 -9.367 0.0 0 CFG=1
M  V30 24 C 0.201 -15.5622 0.0 0 CFG=1
M  V30 25 C -0.3575 -13.9227 0.0 0
M  V30 26 O 0.7596 -17.2017 0.0 0
M  V30 27 C 5.9036 -9.0445 0.0 0 CFG=1
M  V30 28 C 4.2045 -8.7085 0.0 0 CFG=2
M  V30 29 O -0.7454 -15.8847 0.0 0
M  V30 30 C 1.5122 -17.8602 0.0 0
M  V30 31 O 6.6562 -9.703 0.0 0
M  V30 32 C 6.0976 -8.0635 0.0 0
M  V30 33 O 4.3984 -7.7275 0.0 0
M  V30 34 C 3.2579 -9.0311 0.0 0
M  V30 35 C 5.345 -7.405 0.0 0 CFG=1
M  V30 36 O 5.539 -6.424 0.0 0
M  V30 37 N 6.4855 -6.1015 0.0 0
M  V30 38 C 6.6795 -5.1205 0.0 0 CFG=1
M  V30 39 C 7.6261 -4.7979 0.0 0 CFG=2
M  V30 40 C 5.9269 -4.462 0.0 0 CFG=2
M  V30 41 O 8.3787 -5.4564 0.0 0
M  V30 42 C 7.82 -3.8169 0.0 0 CFG=1
M  V30 43 O 6.1209 -3.481 0.0 0
M  V30 44 C 4.9803 -4.7845 0.0 0
M  V30 45 O 8.7666 -3.4944 0.0 0
M  V30 46 C 7.0674 -3.1585 0.0 0 CFG=1
M  V30 47 C 9.5192 -4.1529 0.0 0 CFG=2
M  V30 48 O 7.2614 -2.1774 0.0 0
M  V30 49 O 10.4657 -3.8304 0.0 0
M  V30 50 C 9.3252 -5.1339 0.0 0
M  V30 51 C 6.5088 -1.519 0.0 0 CFG=1
M  V30 52 C 11.2183 -4.4889 0.0 0
M  V30 53 C 10.0778 -5.7924 0.0 0 CFG=1
M  V30 54 C 5.6428 -2.019 0.0 0
M  V30 55 C 6.9282 -0.4999 0.0 0
M  V30 56 C 11.0244 -5.4699 0.0 0 CFG=1
M  V30 57 O 9.8838 -6.7734 0.0 0
M  V30 58 C 4.7204 -1.9967 0.0 0
M  V30 59 C 7.7942 0.0 0.0 0
M  V30 60 C 6.0621 0.0 0.0 0
M  V30 61 N 11.777 -6.1283 0.0 0
M  V30 62 C 8.9373 -7.0959 0.0 0
M  V30 63 C 3.9051 -1.2453 0.0 0
M  V30 64 N 8.6602 -0.5 0.0 0
M  V30 65 C 7.7942 0.9999 0.0 0
M  V30 66 C 5.1961 -0.4999 0.0 0
M  V30 67 C 6.0621 1.0 0.0 0 CFG=2
M  V30 68 C 11.583 -7.1094 0.0 0
M  V30 69 C 12.7235 -5.8058 0.0 0
M  V30 70 C 3.6972 -0.2672 0.0 0
M  V30 71 C 9.5262 0.0 0.0 0
M  V30 72 O 8.6602 1.4999 0.0 0
M  V30 73 C 6.9282 1.5 0.0 0
M  V30 74 C 5.1977 -1.4848 0.0 0
M  V30 75 O 5.8682 1.981 0.0 0
M  V30 76 C 4.97 1.1463 0.0 0
M  V30 77 O 10.6364 -7.4319 0.0 0
M  V30 78 C 12.3356 -7.7678 0.0 0
M  V30 79 C 12.9175 -4.8248 0.0 0
M  V30 80 C 4.1039 0.6463 0.0 0
M  V30 81 O 9.5262 0.9999 0.0 0
M  V30 82 O 10.3923 -0.5 0.0 0 CHG=-1
M  V30 83 C 4.2515 -2.0525 0.0 0
M  V30 84 S 4.3301 -2.9999 0.0 0
M  V30 85 S 3.4641 -3.4999 0.0 0
M  V30 86 S 3.4641 -4.4999 0.0 0
M  V30 87 C 2.598 -4.9999 0.0 0
M  V30 END ATOM
M  V30 BEGIN BOND
M  V30 1 1 1 2
M  V30 2 2 2 3
M  V30 3 1 2 4
M  V30 4 1 3 5
M  V30 5 1 3 6
M  V30 6 2 4 7
M  V30 7 1 4 8
M  V30 8 1 9 5 CFG=1
M  V30 9 1 6 10
M  V30 10 2 6 11
M  V30 11 1 7 12
M  V30 12 1 9 13
M  V30 13 1 14 9
M  V30 14 1 10 15
M  V30 15 1 11 16
M  V30 16 1 12 17
M  V30 17 2 12 18
M  V30 18 1 19 13
M  V30 19 1 14 20 CFG=3
M  V30 20 1 21 14
M  V30 21 1 16 22
M  V30 22 1 23 17 CFG=3
M  V30 23 1 24 19
M  V30 24 1 19 25 CFG=3
M  V30 25 1 21 26 CFG=3
M  V30 26 1 27 23
M  V30 27 1 28 23
M  V30 28 1 24 29 CFG=1
M  V30 29 1 26 30
M  V30 30 1 27 31 CFG=3
M  V30 31 1 27 32
M  V30 32 1 28 33
M  V30 33 1 28 34 CFG=1
M  V30 34 1 35 32
M  V30 35 1 35 36 CFG=1
M  V30 36 1 36 37
M  V30 37 1 38 37 CFG=3
M  V30 38 1 39 38
M  V30 39 1 40 38
M  V30 40 1 39 41 CFG=1
M  V30 41 1 42 39
M  V30 42 1 40 43
M  V30 43 1 40 44 CFG=1
M  V30 44 1 42 45 CFG=3
M  V30 45 1 46 42
M  V30 46 1 47 45 CFG=3
M  V30 47 1 46 48 CFG=1
M  V30 48 1 47 49
M  V30 49 1 47 50
M  V30 50 1 51 48 CFG=1
M  V30 51 1 49 52
M  V30 52 1 53 50
M  V30 53 1 51 54
M  V30 54 1 51 55
M  V30 55 1 56 52
M  V30 56 1 53 57 CFG=1
M  V30 57 3 54 58
M  V30 58 2 55 59
M  V30 59 1 55 60
M  V30 60 1 56 61 CFG=3
M  V30 61 1 57 62
M  V30 62 1 58 63
M  V30 63 1 59 64
M  V30 64 1 59 65
M  V30 65 2 60 66
M  V30 66 1 67 60
M  V30 67 1 61 68
M  V30 68 1 61 69
M  V30 69 2 63 70
M  V30 70 1 64 71
M  V30 71 2 65 72
M  V30 72 1 65 73
M  V30 73 1 66 74
M  V30 74 1 67 75 CFG=1
M  V30 75 1 67 76
M  V30 76 2 68 77
M  V30 77 1 68 78
M  V30 78 1 69 79
M  V30 79 1 70 80
M  V30 80 2 71 81
M  V30 81 1 71 82
M  V30 82 1 74 83
M  V30 83 1 83 84
M  V30 84 1 84 85
M  V30 85 1 85 86
M  V30 86 1 86 87
M  V30 87 1 7 11
M  V30 88 1 21 24
M  V30 89 1 33 35
M  V30 90 1 43 46
M  V30 91 1 53 56
M  V30 92 1 67 73
M  V30 93 3 76 80
M  V30 END BOND
M  V30 BEGIN COLLECTION
M  V30 MDLV30/STERAC1 ATOMS=(19 9 14 19 21 23 24 27 28 35 38 39 40 42 46 47 51 53 56 67)
M  V30 END COLLECTION
M  V30 END CTAB
M  END
>  <Molecule Name>


>  <status>
-

>  <cas>
108212-76-6

>  <name>
CALICHEAMICIN

>  <ID>
1854

>  <Smiles>
CCN([C@@H](CO[C@H](C1)O[C@H]([C@H]2O)[C@H](O[C@H](C(/C3=C\CCSSSC)=C(C(C4)=O)NC([O-])=O)C#C/C=C\C#C[C@@]34O)O[C@H](C)[C@H]2NO[C@@H](C[C@@H]2O)O[C@H](C)[C@H]2SC(c(c(OC)c2OC)c(C)c(I)c2O[C@@H]([C@@H]([C@@H]2OC)O)O[C@@H](C)[C@@H]2O)=O)[C@H]1OC)C(C)=O

$$$$

Actelion Java MolfileCreator 2.0

  0  0  0  0  0  0              0 V3000
M  V30 BEGIN CTAB
M  V30 COUNTS 50 53 0 0 0
M  V30 BEGIN ATOM
M  V30 1 Cl 10.6912 2.6537 0.0 0
M  V30 2 C 11.1179 1.7493 0.0 0
M  V30 3 C 12.1145 1.6667 0.0 0
M  V30 4 C 10.5481 0.9275 0.0 0
M  V30 5 O 12.6843 2.4885 0.0 0
M  V30 6 C 12.5413 0.7624 0.0 0
M  V30 7 N 9.3916 1.0142 0.0 0
M  V30 8 C 10.9749 0.0232 0.0 0
M  V30 9 C 12.2575 3.3929 0.0 0
M  V30 10 C 11.9715 -0.0593 0.0 0
M  V30 11 C 8.4158 0.7955 0.0 0
M  V30 12 C 9.3188 2.0116 0.0 0
M  V30 13 C 12.4582 -1.112 0.0 0
M  V30 14 O 8.0395 1.722 0.0 0
M  V30 15 C 7.5639 0.2719 0.0 0
M  V30 16 C 12.5956 -2.1025 0.0 0
M  V30 17 C 6.9282 -0.5 0.0 0 CFG=2
M  V30 18 C 12.0956 -2.9686 0.0 0
M  V30 19 C 13.577 -2.2942 0.0 0
M  V30 20 O 6.0621 0.0 0.0 0
M  V30 21 C 6.5775 -1.4365 0.0 0 CFG=2
M  V30 22 C 11.9038 -3.95 0.0 0
M  V30 23 C 6.0621 1.0 0.0 0
M  V30 24 O 5.698 -1.9124 0.0 0
M  V30 25 C 6.55 -2.4361 0.0 0 CFG=1
M  V30 26 C 5.8234 -0.7797 0.0 0
M  V30 27 C 10.9773 -4.3263 0.0 0
M  V30 28 O 6.9282 1.5 0.0 0
M  V30 29 C 5.1961 1.5 0.0 0 CFG=1
M  V30 30 C 6.8485 -3.3905 0.0 0 CFG=1
M  V30 31 C 10.2232 -4.9831 0.0 0 CFG=1
M  V30 32 N 5.1961 2.5 0.0 0
M  V30 33 C 4.3301 1.0 0.0 0
M  V30 34 C 7.5018 -4.3487 0.0 0 CFG=1
M  V30 35 C 5.9484 -3.8262 0.0 0
M  V30 36 O 10.6159 -5.9028 0.0 0
M  V30 37 C 9.0682 -5.0879 0.0 0 CFG=2
M  V30 38 C 4.3301 3.0 0.0 0
M  V30 39 C 6.0621 3.0 0.0 0
M  V30 40 O 7.075 -5.2531 0.0 0
M  V30 41 C 8.4984 -4.2661 0.0 0
M  V30 42 C 11.6087 -6.0226 0.0 0
M  V30 43 O 9.6412 -5.9075 0.0 0
M  V30 44 N 8.6414 -5.9923 0.0 0
M  V30 45 O 3.4641 2.5 0.0 0
M  V30 46 C 4.3301 4.0 0.0 0
M  V30 47 C 7.6449 -6.0749 0.0 0
M  V30 48 C 3.4641 4.5 0.0 0
M  V30 49 O 7.2181 -6.9792 0.0 0
M  V30 50 S 3.4641 5.5 0.0 0
M  V30 END ATOM
M  V30 BEGIN BOND
M  V30 1 1 1 2
M  V30 2 2 2 3
M  V30 3 1 2 4
M  V30 4 1 3 5
M  V30 5 1 3 6
M  V30 6 1 4 7
M  V30 7 2 4 8
M  V30 8 1 5 9
M  V30 9 2 6 10
M  V30 10 1 7 11
M  V30 11 1 7 12
M  V30 12 1 10 13
M  V30 13 2 11 14
M  V30 14 1 11 15
M  V30 15 1 13 16
M  V30 16 1 17 15
M  V30 17 2 16 18
M  V30 18 1 16 19
M  V30 19 1 17 20 CFG=1
M  V30 20 1 21 17
M  V30 21 1 18 22
M  V30 22 1 20 23
M  V30 23 1 21 24
M  V30 24 1 25 21
M  V30 25 1 21 26 CFG=3
M  V30 26 2 22 27
M  V30 27 2 23 28
M  V30 28 1 29 23
M  V30 29 1 30 25
M  V30 30 1 31 27
M  V30 31 1 29 32 CFG=3
M  V30 32 1 29 33
M  V30 33 1 34 30
M  V30 34 1 30 35 CFG=1
M  V30 35 1 31 36 CFG=1
M  V30 36 1 37 31
M  V30 37 1 32 38
M  V30 38 1 32 39
M  V30 39 1 34 40 CFG=3
M  V30 40 1 34 41
M  V30 41 1 36 42
M  V30 42 1 37 43 CFG=1
M  V30 43 1 37 44
M  V30 44 2 38 45
M  V30 45 1 38 46
M  V30 46 1 40 47
M  V30 47 1 46 48
M  V30 48 2 47 49
M  V30 49 1 48 50
M  V30 50 1 8 10
M  V30 51 1 25 24 CFG=3
M  V30 52 1 37 41
M  V30 53 1 44 47
M  V30 END BOND
M  V30 BEGIN COLLECTION
M  V30 MDLV30/STERAC1 ATOMS=(8 17 21 25 29 30 31 34 37)
M  V30 END COLLECTION
M  V30 END CTAB
M  END
>  <Molecule Name>


>  <status>
-

>  <cas>
139504-50-0

>  <name>
MAYTANSINE

>  <ID>
1855

>  <Smiles>
C[C@@H](C(O[C@@H](CC(N(C)c1cc(C/C(/C)=C/C=C/[C@H]([C@@](C2)(N3)O)OC)cc(OC)c1Cl)=O)[C@]1(C)O[C@H]1[C@H](C)[C@H]2OC3=O)=O)N(C)C(CCS)=O

$$$$

Actelion Java MolfileCreator 2.0

  0  0  0  0  0  0              0 V3000
M  V30 BEGIN CTAB
M  V30 COUNTS 51 52 0 0 0
M  V30 BEGIN ATOM
M  V30 1 O 5.1961 -1.4999 0.0 0
M  V30 2 C 5.1961 -0.5 0.0 0
M  V30 3 N 6.0621 0.0 0.0 0
M  V30 4 C 4.3301 0.0 0.0 0 CFG=1
M  V30 5 C 6.9282 -0.5 0.0 0 CFG=2
M  V30 6 C 6.0621 0.9999 0.0 0
M  V30 7 N 3.4641 -0.5 0.0 0
M  V30 8 C 4.3301 1.0 0.0 0
M  V30 9 C 7.7942 0.0 0.0 0 CFG=2
M  V30 10 C 6.9282 -1.4999 0.0 0 CFG=2
M  V30 11 C 2.598 0.0 0.0 0
M  V30 12 C 5.1961 1.4999 0.0 0
M  V30 13 C 3.4641 1.5 0.0 0
M  V30 14 O 7.7942 1.0 0.0 0
M  V30 15 C 8.6602 -0.5 0.0 0
M  V30 16 C 6.0621 -2.0 0.0 0
M  V30 17 C 7.7942 -2.0 0.0 0
M  V30 18 O 2.598 1.0 0.0 0
M  V30 19 C 1.732 -0.5 0.0 0 CFG=1
M  V30 20 C 6.9282 1.5 0.0 0
M  V30 21 C 9.5262 0.0 0.0 0
M  V30 22 C 6.0621 -2.9999 0.0 0
M  V30 23 N 1.732 -1.5 0.0 0
M  V30 24 C 0.866 0.0 0.0 0
M  V30 25 O 10.3923 -0.5 0.0 0
M  V30 26 N 9.5262 1.0 0.0 0
M  V30 27 C 2.598 -1.9999 0.0 0
M  V30 28 C 0.866 1.0 0.0 0
M  V30 29 C 0.0 -0.5 0.0 0
M  V30 30 C 10.3352 1.5877 0.0 0 CFG=2
M  V30 31 C 8.7172 1.5877 0.0 0
M  V30 32 C 11.2863 1.2787 0.0 0 CFG=2
M  V30 33 C 10.0262 2.5388 0.0 0
M  V30 34 C 9.0262 2.5388 0.0 0
M  V30 35 O 11.4942 0.3006 0.0 0
M  V30 36 C 12.0294 1.9478 0.0 0 CFG=2
M  V30 37 C 12.4453 -0.0083 0.0 0
M  V30 38 C 11.8215 2.926 0.0 0
M  V30 39 C 12.9805 1.6388 0.0 0
M  V30 40 O 10.8705 3.235 0.0 0
M  V30 41 N 12.5647 3.5951 0.0 0
M  V30 42 C 12.3568 4.5733 0.0 0 CFG=1
M  V30 43 C 13.0999 5.2424 0.0 0 CFG=1
M  V30 44 C 11.4057 4.8823 0.0 0
M  V30 45 O 14.051 4.9334 0.0 0
M  V30 46 C 12.892 6.2206 0.0 0
M  V30 47 C 13.6351 6.8897 0.0 0
M  V30 48 C 11.9409 6.5296 0.0 0
M  V30 49 C 13.4272 7.8678 0.0 0
M  V30 50 C 11.733 7.5077 0.0 0
M  V30 51 C 12.4762 8.1768 0.0 0
M  V30 END ATOM
M  V30 BEGIN BOND
M  V30 1 2 1 2
M  V30 2 1 2 3
M  V30 3 1 4 2
M  V30 4 1 5 3 CFG=3
M  V30 5 1 3 6
M  V30 6 1 4 7 CFG=1
M  V30 7 1 4 8
M  V30 8 1 9 5
M  V30 9 1 10 5
M  V30 10 1 7 11
M  V30 11 1 8 12
M  V30 12 1 8 13
M  V30 13 1 9 14 CFG=3
M  V30 14 1 9 15
M  V30 15 1 10 16
M  V30 16 1 10 17 CFG=1
M  V30 17 2 11 18
M  V30 18 1 19 11
M  V30 19 1 14 20
M  V30 20 1 15 21
M  V30 21 1 16 22
M  V30 22 1 19 23 CFG=1
M  V30 23 1 19 24
M  V30 24 2 21 25
M  V30 25 1 21 26
M  V30 26 1 23 27
M  V30 27 1 24 28
M  V30 28 1 24 29
M  V30 29 1 30 26 CFG=1
M  V30 30 1 26 31
M  V30 31 1 32 30
M  V30 32 1 30 33
M  V30 33 1 31 34
M  V30 34 1 32 35 CFG=1
M  V30 35 1 36 32
M  V30 36 1 35 37
M  V30 37 1 36 38
M  V30 38 1 36 39 CFG=3
M  V30 39 2 38 40
M  V30 40 1 38 41
M  V30 41 1 42 41 CFG=3
M  V30 42 1 43 42
M  V30 43 1 42 44
M  V30 44 1 43 45 CFG=3
M  V30 45 1 43 46
M  V30 46 2 46 47
M  V30 47 1 46 48
M  V30 48 1 47 49
M  V30 49 2 48 50
M  V30 50 2 49 51
M  V30 51 1 33 34
M  V30 52 1 50 51
M  V30 END BOND
M  V30 BEGIN COLLECTION
M  V30 MDLV30/STERAC1 ATOMS=(10 4 5 9 10 19 30 32 36 42 43)
M  V30 END COLLECTION
M  V30 END CTAB
M  END
>  <Molecule Name>


>  <status>
-

>  <cas>
474645-27-7

>  <name>
MMAE

>  <ID>
1856

>  <Smiles>
CC[C@H](C)[C@@H]([C@@H](CC(N(CCC1)[C@@H]1[C@@H]([C@@H](C)C(N[C@H](C)[C@H](c1ccccc1)O)=O)OC)=O)OC)N(C)C([C@H](C(C)C)NC([C@H](C(C)C)NC)=O)=O

$$$$

Actelion Java MolfileCreator 2.0

  0  0  0  0  0  0              0 V3000
M  V30 BEGIN CTAB
M  V30 COUNTS 35 38 0 0 0
M  V30 BEGIN ATOM
M  V30 1 O 5.1961 1.5 0.0 0
M  V30 2 C 6.0621 0.9999 0.0 0
M  V30 3 N 6.0621 0.0 0.0 0
M  V30 4 C 6.9282 1.4999 0.0 0
M  V30 5 C 5.1961 -0.5 0.0 0 CFG=2
M  V30 6 N 6.4282 2.366 0.0 0
M  V30 7 C 7.7942 1.9999 0.0 0
M  V30 8 C 7.4282 0.6339 0.0 0
M  V30 9 C 4.3301 0.0 0.0 0
M  V30 10 C 5.1961 -1.5 0.0 0
M  V30 11 O 4.3301 1.0 0.0 0
M  V30 12 N 3.4641 -0.5 0.0 0
M  V30 13 C 6.0621 -2.0 0.0 0
M  V30 14 C 2.598 0.0 0.0 0 CFG=2
M  V30 15 C 6.9757 -1.5932 0.0 0
M  V30 16 C 6.1667 -2.9945 0.0 0
M  V30 17 N 1.732 -0.5 0.0 0
M  V30 18 C 2.598 1.0 0.0 0
M  V30 19 C 7.6448 -2.3364 0.0 0
M  V30 20 C 7.2847 -0.6422 0.0 0
M  V30 21 N 7.1448 -3.2024 0.0 0
M  V30 22 C 0.866 0.0 0.0 0
M  V30 23 C 1.732 1.5 0.0 0
M  V30 24 C 8.623 -2.1284 0.0 0
M  V30 25 C 8.2628 -0.4342 0.0 0
M  V30 26 O 0.0 -0.5 0.0 0
M  V30 27 C 1.6275 2.4945 0.0 0
M  V30 28 C 0.8185 1.0932 0.0 0
M  V30 29 C 8.932 -1.1774 0.0 0
M  V30 30 C 0.6493 2.7024 0.0 0
M  V30 31 C 2.2966 3.2376 0.0 0
M  V30 32 N 0.1493 1.8364 0.0 0
M  V30 33 C 0.3403 3.6534 0.0 0
M  V30 34 C 1.9876 4.1887 0.0 0
M  V30 35 C 1.0094 4.3966 0.0 0
M  V30 END ATOM
M  V30 BEGIN BOND
M  V30 1 2 1 2
M  V30 2 1 2 3
M  V30 3 1 2 4
M  V30 4 1 5 3 CFG=1
M  V30 5 1 4 6
M  V30 6 1 4 7
M  V30 7 1 4 8
M  V30 8 1 5 9
M  V30 9 1 5 10
M  V30 10 2 9 11
M  V30 11 1 9 12
M  V30 12 1 10 13
M  V30 13 1 14 12 CFG=3
M  V30 14 1 13 15
M  V30 15 2 13 16
M  V30 16 1 14 17
M  V30 17 1 14 18
M  V30 18 2 15 19
M  V30 19 1 15 20
M  V30 20 1 16 21
M  V30 21 1 17 22
M  V30 22 1 18 23
M  V30 23 1 19 24
M  V30 24 2 20 25
M  V30 25 2 22 26
M  V30 26 1 23 27
M  V30 27 2 23 28
M  V30 28 2 24 29
M  V30 29 2 27 30
M  V30 30 1 27 31
M  V30 31 1 28 32
M  V30 32 1 30 33
M  V30 33 2 31 34
M  V30 34 2 33 35
M  V30 35 1 19 21
M  V30 36 1 25 29
M  V30 37 1 30 32
M  V30 38 1 34 35
M  V30 END BOND
M  V30 BEGIN COLLECTION
M  V30 MDLV30/STERAC1 ATOMS=(2 5 14)
M  V30 END COLLECTION
M  V30 END CTAB
M  END
>  <Molecule Name>


>  <status>
DISCONTINUED

>  <cas>
381231-18-1

>  <name>
MACIMORELIN

>  <ID>
1857

>  <Smiles>
CC(C)(C(N[C@@H](Cc1c[nH]c2c1cccc2)C(N[C@@H](Cc1c[nH]c2c1cccc2)NC=O)=O)=O)N

$$$$

Actelion Java MolfileCreator 2.0

  0  0  0  0  0  0              0 V3000
M  V30 BEGIN CTAB
M  V30 COUNTS 36 37 0 0 0
M  V30 BEGIN ATOM
M  V30 1 O 7.7942 9.0 0.0 0
M  V30 2 N 6.9282 8.5 0.0 0 CHG=1
M  V30 3 O 6.9282 7.5 0.0 0
M  V30 4 O 6.0621 9.0 0.0 0 CHG=-1
M  V30 5 C 6.0621 7.0 0.0 0
M  V30 6 C 6.0621 6.0 0.0 0
M  V30 7 C 5.1961 5.5 0.0 0
M  V30 8 C 5.1961 4.5 0.0 0
M  V30 9 O 4.3301 4.0 0.0 0
M  V30 10 C 4.3301 3.0 0.0 0
M  V30 11 O 5.1961 2.5 0.0 0
M  V30 12 C 3.4641 2.5 0.0 0
M  V30 13 C 3.4641 1.5 0.0 0
M  V30 14 C 2.598 1.0 0.0 0
M  V30 15 C 2.598 0.0 0.0 0
M  V30 16 C 1.732 -0.5 0.0 0
M  V30 17 C 0.866 0.0 0.0 0
M  V30 18 C 0.0 -0.5 0.0 0 CFG=1
M  V30 19 C -0.9135 -0.0932 0.0 0 CFG=1
M  V30 20 C -0.1045 -1.4945 0.0 0 CFG=2
M  V30 21 O -1.1214 0.8848 0.0 0
M  V30 22 C -1.5826 -0.8364 0.0 0
M  V30 23 C -1.0826 -1.7024 0.0 0 CFG=1
M  V30 24 C 0.6386 -2.1636 0.0 0
M  V30 25 O -1.4894 -2.6159 0.0 0
M  V30 26 C 1.5896 -1.8546 0.0 0
M  V30 27 C 2.3328 -2.5237 0.0 0 CFG=1
M  V30 28 O 2.1249 -3.5019 0.0 0
M  V30 29 C 3.2838 -2.2147 0.0 0
M  V30 30 C 4.027 -2.8838 0.0 0
M  V30 31 C 4.978 -2.5748 0.0 0
M  V30 32 C 5.7212 -3.2439 0.0 0
M  V30 33 C 5.1859 -1.5967 0.0 0
M  V30 34 C 6.6722 -2.9349 0.0 0
M  V30 35 C 6.137 -1.2876 0.0 0
M  V30 36 C 6.8801 -1.9568 0.0 0
M  V30 END ATOM
M  V30 BEGIN BOND
M  V30 1 2 1 2
M  V30 2 1 2 3
M  V30 3 1 2 4
M  V30 4 1 3 5
M  V30 5 1 5 6
M  V30 6 1 6 7
M  V30 7 1 7 8
M  V30 8 1 8 9
M  V30 9 1 9 10
M  V30 10 2 10 11
M  V30 11 1 10 12
M  V30 12 1 12 13
M  V30 13 1 13 14
M  V30 14 1 14 15
M  V30 15 2 15 16
M  V30 16 1 16 17
M  V30 17 1 18 17 CFG=3
M  V30 18 1 19 18
M  V30 19 1 20 18
M  V30 20 1 19 21 CFG=3
M  V30 21 1 19 22
M  V30 22 1 23 20
M  V30 23 1 20 24 CFG=1
M  V30 24 1 23 25 CFG=3
M  V30 25 1 24 26
M  V30 26 1 27 26
M  V30 27 1 27 28 CFG=3
M  V30 28 1 27 29
M  V30 29 1 29 30
M  V30 30 1 30 31
M  V30 31 2 31 32
M  V30 32 1 31 33
M  V30 33 1 32 34
M  V30 34 2 33 35
M  V30 35 2 34 36
M  V30 36 1 22 23
M  V30 37 1 35 36
M  V30 END BOND
M  V30 BEGIN COLLECTION
M  V30 MDLV30/STERAC1 ATOMS=(5 18 19 20 23 27)
M  V30 END COLLECTION
M  V30 END CTAB
M  END
>  <Molecule Name>


>  <status>
-

>  <cas>
860005-21-6

>  <name>
LATANOPROSTENE BUNOD

>  <ID>
1858

>  <Smiles>
[O-][N+](OCCCCOC(CCC/C=C\C[C@H]([C@@H](CC[C@H](CCc1ccccc1)O)[C@@H](C1)O)[C@H]1O)=O)=O

$$$$

Actelion Java MolfileCreator 2.0

  0  0  0  0  0  0              0 V3000
M  V30 BEGIN CTAB
M  V30 COUNTS 26 29 0 0 0
M  V30 BEGIN ATOM
M  V30 1 S 2.598 -0.75 0.0 0
M  V30 2 O 1.848 -2.049 0.0 0
M  V30 3 O 3.348 -2.049 0.0 0
M  V30 4 N 3.8971 0.0 0.0 0
M  V30 5 C 1.299 0.0 0.0 0
M  V30 6 C 5.346 -0.3882 0.0 0
M  V30 7 C 4.2853 1.4488 0.0 0
M  V30 8 C 0.0 -0.75 0.0 0
M  V30 9 C 5.7342 1.0606 0.0 0
M  V30 10 N 7.0332 1.8106 0.0 0
M  V30 11 C 5.5384 2.5478 0.0 0
M  V30 12 N 8.4036 1.2005 0.0 0
M  V30 13 C 7.19 3.3024 0.0 0
M  V30 14 C 4.1526 3.1218 0.0 0
M  V30 15 C 9.4072 2.3152 0.0 0
M  V30 16 C 8.6572 3.6143 0.0 0
M  V30 17 N 2.7668 3.6958 0.0 0
M  V30 18 C 9.2674 4.9846 0.0 0
M  V30 19 N 10.7591 5.1414 0.0 0
M  V30 20 C 8.3857 6.1981 0.0 0
M  V30 21 C 11.3692 6.5117 0.0 0
M  V30 22 C 8.9958 7.5684 0.0 0
M  V30 23 C 6.8939 6.3549 0.0 0
M  V30 24 N 10.4876 7.7252 0.0 0
M  V30 25 N 7.8811 8.5721 0.0 0
M  V30 26 C 6.582 7.8221 0.0 0
M  V30 END ATOM
M  V30 BEGIN BOND
M  V30 1 2 1 2
M  V30 2 2 1 3
M  V30 3 1 1 4
M  V30 4 1 1 5
M  V30 5 1 4 6
M  V30 6 1 4 7
M  V30 7 1 5 8
M  V30 8 1 6 9
M  V30 9 1 9 10
M  V30 10 1 9 11
M  V30 11 1 10 12
M  V30 12 1 10 13
M  V30 13 1 11 14
M  V30 14 2 12 15
M  V30 15 2 13 16
M  V30 16 3 14 17
M  V30 17 1 16 18
M  V30 18 2 18 19
M  V30 19 1 18 20
M  V30 20 1 19 21
M  V30 21 2 20 22
M  V30 22 1 20 23
M  V30 23 2 21 24
M  V30 24 1 22 25
M  V30 25 2 23 26
M  V30 26 1 7 9
M  V30 27 1 15 16
M  V30 28 1 22 24
M  V30 29 1 25 26
M  V30 END BOND
M  V30 END CTAB
M  END
>  <Molecule Name>


>  <status>
-

>  <cas>
1187594-09-7

>  <name>
BARICITINIB

>  <ID>
1859

>  <Smiles>
CCS(N(C1)CC1(CC#N)n1ncc(-c2ncnc3c2cc[nH]3)c1)(=O)=O

$$$$

Actelion Java MolfileCreator 2.0

  0  0  0  0  0  0              0 V3000
M  V30 BEGIN CTAB
M  V30 COUNTS 34 37 0 0 0
M  V30 BEGIN ATOM
M  V30 1 O 4.3301 6.0 0.0 0
M  V30 2 C 3.4641 5.5 0.0 0
M  V30 3 O 3.4641 4.5 0.0 0
M  V30 4 C 2.598 6.0 0.0 0
M  V30 5 C 2.598 4.0 0.0 0
M  V30 6 C 2.598 7.0 0.0 0
M  V30 7 C 1.732 5.4999 0.0 0
M  V30 8 C 2.598 3.0 0.0 0
M  V30 9 C 1.732 7.4999 0.0 0
M  V30 10 C 3.4641 7.5 0.0 0
M  V30 11 C 0.866 6.0 0.0 0
M  V30 12 C 1.732 2.5 0.0 0
M  V30 13 C 3.4641 2.5 0.0 0
M  V30 14 C 0.866 7.0 0.0 0
M  V30 15 C 1.732 1.5 0.0 0
M  V30 16 C 3.4641 1.5 0.0 0
M  V30 17 C 0.0 7.5 0.0 0
M  V30 18 C 2.598 1.0 0.0 0
M  V30 19 C 2.598 0.0 0.0 0 CFG=2
M  V30 20 C 1.732 -0.5 0.0 0
M  V30 21 C 3.4641 -0.5 0.0 0
M  V30 22 O 1.732 -1.5 0.0 0
M  V30 23 N 0.866 0.0 0.0 0
M  V30 24 N 4.3301 0.0 0.0 0
M  V30 25 C 0.0 -0.5 0.0 0
M  V30 26 C -0.866 0.0 0.0 0
M  V30 27 C 0.0 -1.4999 0.0 0
M  V30 28 C -1.732 -0.4999 0.0 0
M  V30 29 C -0.866 -1.9999 0.0 0
M  V30 30 C -1.732 -1.4999 0.0 0
M  V30 31 C -2.598 0.0 0.0 0
M  V30 32 C -2.598 -1.9999 0.0 0
M  V30 33 C -3.4641 -0.4999 0.0 0
M  V30 34 N -3.4641 -1.4999 0.0 0
M  V30 END ATOM
M  V30 BEGIN BOND
M  V30 1 2 1 2
M  V30 2 1 2 3
M  V30 3 1 2 4
M  V30 4 1 3 5
M  V30 5 2 4 6
M  V30 6 1 4 7
M  V30 7 1 5 8
M  V30 8 1 6 9
M  V30 9 1 6 10
M  V30 10 2 7 11
M  V30 11 2 8 12
M  V30 12 1 8 13
M  V30 13 2 9 14
M  V30 14 1 12 15
M  V30 15 2 13 16
M  V30 16 1 14 17
M  V30 17 2 15 18
M  V30 18 1 19 18
M  V30 19 1 19 20
M  V30 20 1 19 21 CFG=1
M  V30 21 2 20 22
M  V30 22 1 20 23
M  V30 23 1 21 24
M  V30 24 1 23 25
M  V30 25 2 25 26
M  V30 26 1 25 27
M  V30 27 1 26 28
M  V30 28 2 27 29
M  V30 29 1 28 30
M  V30 30 2 28 31
M  V30 31 2 30 32
M  V30 32 1 31 33
M  V30 33 1 32 34
M  V30 34 1 11 14
M  V30 35 1 16 18
M  V30 36 1 29 30
M  V30 37 2 33 34
M  V30 END BOND
M  V30 BEGIN COLLECTION
M  V30 MDLV30/STERAC1 ATOMS=(1 19)
M  V30 END COLLECTION
M  V30 END CTAB
M  END
>  <Molecule Name>


>  <status>
-

>  <cas>
1254032-66-0

>  <name>
NETARSUDIL

>  <ID>
1860

>  <Smiles>
Cc(cc1)cc(C)c1C(OCc1ccc(C(CN)C(Nc2cc3ccncc3cc2)=O)cc1)=O

$$$$

Actelion Java MolfileCreator 2.0

  0  0  0  0  0  0              0 V3000
M  V30 BEGIN CTAB
M  V30 COUNTS 24 26 0 0 0
M  V30 BEGIN ATOM
M  V30 1 O 2.598 1.0 0.0 0
M  V30 2 C 2.598 0.0 0.0 0
M  V30 3 N 3.4641 -0.5 0.0 0
M  V30 4 C 1.732 -0.5 0.0 0 CFG=1
M  V30 5 C 4.3301 0.0 0.0 0
M  V30 6 C 1.732 -1.5 0.0 0
M  V30 7 C 0.866 0.0 0.0 0
M  V30 8 C 5.1961 -0.4999 0.0 0
M  V30 9 C 4.3301 0.9999 0.0 0
M  V30 10 C 0.866 -1.9999 0.0 0
M  V30 11 C 2.598 -1.9999 0.0 0
M  V30 12 N 0.0 -0.5 0.0 0
M  V30 13 C 6.0621 0.0 0.0 0
M  V30 14 C 5.1961 1.4999 0.0 0
M  V30 15 C 0.866 -2.9999 0.0 0
M  V30 16 C 2.598 -2.9999 0.0 0
M  V30 17 C 6.0621 1.0 0.0 0
M  V30 18 C 6.9282 -0.4999 0.0 0
M  V30 19 C 1.732 -3.4999 0.0 0
M  V30 20 C 6.9282 1.5 0.0 0
M  V30 21 C 7.7942 0.0 0.0 0
M  V30 22 C 1.732 -4.5 0.0 0
M  V30 23 N 7.7942 1.0 0.0 0
M  V30 24 O 2.598 -4.9999 0.0 0
M  V30 END ATOM
M  V30 BEGIN BOND
M  V30 1 2 1 2
M  V30 2 1 2 3
M  V30 3 1 4 2
M  V30 4 1 3 5
M  V30 5 1 4 6
M  V30 6 1 4 7 CFG=1
M  V30 7 2 5 8
M  V30 8 1 5 9
M  V30 9 2 6 10
M  V30 10 1 6 11
M  V30 11 1 7 12
M  V30 12 1 8 13
M  V30 13 2 9 14
M  V30 14 1 10 15
M  V30 15 2 11 16
M  V30 16 1 13 17
M  V30 17 2 13 18
M  V30 18 2 15 19
M  V30 19 2 17 20
M  V30 20 1 18 21
M  V30 21 1 19 22
M  V30 22 1 20 23
M  V30 23 1 22 24
M  V30 24 1 14 17
M  V30 25 1 16 19
M  V30 26 2 21 23
M  V30 END BOND
M  V30 BEGIN COLLECTION
M  V30 MDLV30/STERAC1 ATOMS=(1 4)
M  V30 END COLLECTION
M  V30 END CTAB
M  END
>  <Molecule Name>


>  <status>
-

>  <cas>
1254032-16-0

>  <name>
M NETARSUDIL

>  <ID>
1861

>  <Smiles>
NCC(C(Nc1cc2ccncc2cc1)=O)c1ccc(CO)cc1

$$$$

Actelion Java MolfileCreator 2.0

  0  0  0  0  0  0              0 V3000
M  V30 BEGIN CTAB
M  V30 COUNTS 30 35 0 0 0
M  V30 BEGIN ATOM
M  V30 1 O 2.598 0.0 0.0 0
M  V30 2 C 1.732 -0.5 0.0 0
M  V30 3 O 0.866 0.0 0.0 0
M  V30 4 C 1.732 -1.5 0.0 0
M  V30 5 C 0.0 -0.5 0.0 0
M  V30 6 C 0.866 -1.9999 0.0 0
M  V30 7 C 2.598 -2.0 0.0 0
M  V30 8 C 0.0 -1.5 0.0 0
M  V30 9 C -0.866 0.0 0.0 0 CFG=2
M  V30 10 C 0.866 -2.9999 0.0 0
M  V30 11 C 2.598 -3.0 0.0 0
M  V30 12 C -0.9619 -1.9484 0.0 0
M  V30 13 O -1.0739 0.9781 0.0 0
M  V30 14 C -1.732 -0.4999 0.0 0 CFG=1
M  V30 15 C 1.732 -3.5 0.0 0
M  V30 16 C -1.732 -1.4999 0.0 0 CFG=2
M  V30 17 C -2.0684 1.0826 0.0 0
M  V30 18 C -2.4751 0.1691 0.0 0
M  V30 19 C -0.6055 -1.2454 0.0 0
M  V30 20 C -2.6933 -1.8759 0.0 0 CFG=2
M  V30 21 C -2.8892 1.752 0.0 0
M  V30 22 C -3.3978 -0.2936 0.0 0
M  V30 23 C -0.6643 -2.2954 0.0 0
M  V30 24 N -1.5991 -2.6724 0.0 0
M  V30 25 C -3.5023 -1.2881 0.0 0
M  V30 26 O -2.6897 2.7319 0.0 0
M  V30 27 C -3.8496 1.4733 0.0 0
M  V30 28 C -4.0885 0.5023 0.0 0
M  V30 29 C -1.6974 -3.6675 0.0 0
M  V30 30 C -3.4386 3.3946 0.0 0
M  V30 END ATOM
M  V30 BEGIN BOND
M  V30 1 2 1 2
M  V30 2 1 2 3
M  V30 3 1 2 4
M  V30 4 1 3 5
M  V30 5 2 4 6
M  V30 6 1 4 7
M  V30 7 2 5 8
M  V30 8 1 9 5
M  V30 9 1 6 10
M  V30 10 2 7 11
M  V30 11 1 8 12
M  V30 12 1 9 13 CFG=1
M  V30 13 1 14 9
M  V30 14 2 10 15
M  V30 15 1 16 12 CFG=1
M  V30 16 1 13 17
M  V30 17 1 14 18
M  V30 18 1 14 19 CFG=3
M  V30 19 1 20 16
M  V30 20 1 17 21
M  V30 21 1 18 22
M  V30 22 1 19 23
M  V30 23 1 20 24 CFG=3
M  V30 24 1 20 25
M  V30 25 1 21 26
M  V30 26 2 21 27
M  V30 27 2 22 28
M  V30 28 1 24 29
M  V30 29 1 26 30
M  V30 30 1 11 15
M  V30 31 1 14 16
M  V30 32 2 17 18
M  V30 33 1 22 25
M  V30 34 1 23 24
M  V30 35 1 27 28
M  V30 END BOND
M  V30 BEGIN COLLECTION
M  V30 MDLV30/STERAC1 ATOMS=(4 9 14 16 20)
M  V30 END COLLECTION
M  V30 END CTAB
M  END
>  <Molecule Name>


>  <status>
-

>  <cas>
1259440-61-3

>  <name>
BENZHYDROCODONE

>  <ID>
1862

>  <Smiles>
CN(CC1)[C@H](Cc2ccc3OC)[C@H]4[C@@]11c2c3O[C@H]1C(OC(c1ccccc1)=O)=CC4

$$$$

Actelion Java MolfileCreator 2.0

  0  0  0  0  0  0              0 V3000
M  V30 BEGIN CTAB
M  V30 COUNTS 37 41 0 0 0
M  V30 BEGIN ATOM
M  V30 1 F 6.4951 -3.0 0.0 0
M  V30 2 C 5.1961 -2.25 0.0 0
M  V30 3 C 5.1961 -0.75 0.0 0
M  V30 4 C 3.8971 -2.9999 0.0 0
M  V30 5 N 3.8971 0.0 0.0 0
M  V30 6 C 6.4951 0.0 0.0 0
M  V30 7 N 2.598 -2.25 0.0 0
M  V30 8 C 2.598 -0.75 0.0 0
M  V30 9 C 7.7942 -0.75 0.0 0
M  V30 10 C 6.4951 1.4999 0.0 0
M  V30 11 N 1.299 0.0 0.0 0
M  V30 12 C 9.0932 0.0 0.0 0
M  V30 13 C 7.7942 2.25 0.0 0
M  V30 14 C 0.0 -0.75 0.0 0
M  V30 15 F 10.3923 -0.75 0.0 0
M  V30 16 C 9.0932 1.4999 0.0 0
M  V30 17 N 8.106 3.7172 0.0 0
M  V30 18 N -1.299 0.0 0.0 0
M  V30 19 C 0.0 -2.25 0.0 0
M  V30 20 N 10.2079 2.5036 0.0 0
M  V30 21 C 9.5978 3.874 0.0 0
M  V30 22 C 7.1024 4.8319 0.0 0
M  V30 23 C -2.598 -0.7499 0.0 0
M  V30 24 C -1.299 -2.9999 0.0 0
M  V30 25 C 10.3478 5.173 0.0 0
M  V30 26 C 7.5659 6.2585 0.0 0
M  V30 27 C 5.6351 4.52 0.0 0
M  V30 28 C -2.598 -2.2499 0.0 0
M  V30 29 C -3.8971 -2.9999 0.0 0
M  V30 30 N -3.8971 -4.4999 0.0 0
M  V30 31 C -5.1961 -5.2499 0.0 0
M  V30 32 C -2.598 -5.2499 0.0 0
M  V30 33 C -5.1961 -6.7499 0.0 0
M  V30 34 C -2.598 -6.7499 0.0 0
M  V30 35 N -3.8971 -7.4999 0.0 0
M  V30 36 C -3.8971 -9.0 0.0 0
M  V30 37 C -2.598 -9.75 0.0 0
M  V30 END ATOM
M  V30 BEGIN BOND
M  V30 1 1 1 2
M  V30 2 2 2 3
M  V30 3 1 2 4
M  V30 4 1 3 5
M  V30 5 1 3 6
M  V30 6 2 4 7
M  V30 7 2 5 8
M  V30 8 2 6 9
M  V30 9 1 6 10
M  V30 10 1 8 11
M  V30 11 1 9 12
M  V30 12 2 10 13
M  V30 13 1 11 14
M  V30 14 1 12 15
M  V30 15 2 12 16
M  V30 16 1 13 17
M  V30 17 2 14 18
M  V30 18 1 14 19
M  V30 19 1 16 20
M  V30 20 1 17 21
M  V30 21 1 17 22
M  V30 22 1 18 23
M  V30 23 2 19 24
M  V30 24 1 21 25
M  V30 25 1 22 26
M  V30 26 1 22 27
M  V30 27 2 23 28
M  V30 28 1 28 29
M  V30 29 1 29 30
M  V30 30 1 30 31
M  V30 31 1 30 32
M  V30 32 1 31 33
M  V30 33 1 32 34
M  V30 34 1 33 35
M  V30 35 1 35 36
M  V30 36 1 36 37
M  V30 37 1 7 8
M  V30 38 1 13 16
M  V30 39 2 20 21
M  V30 40 1 24 28
M  V30 41 1 34 35
M  V30 END BOND
M  V30 END CTAB
M  END
>  <Molecule Name>


>  <status>
-

>  <cas>
1231929-97-7

>  <name>
ABEMACICLIB

>  <ID>
1863

>  <Smiles>
CCN1CCN(Cc(cc2)cnc2Nc(nc2)nc(-c3cc(F)c4nc(C)n(C(C)C)c4c3)c2F)CC1

$$$$

Actelion Java MolfileCreator 2.0

  0  0  0  0  0  0              0 V3000
M  V30 BEGIN CTAB
M  V30 COUNTS 27 30 0 0 0
M  V30 BEGIN ATOM
M  V30 1 O 2.598 1.0 0.0 0
M  V30 2 C 2.598 0.0 0.0 0
M  V30 3 C 1.732 -0.5 0.0 0
M  V30 4 C 3.4641 -0.4999 0.0 0
M  V30 5 C 0.866 0.0 0.0 0
M  V30 6 C 1.732 -1.5 0.0 0
M  V30 7 C 3.4641 -1.4999 0.0 0
M  V30 8 C 4.3301 0.0 0.0 0
M  V30 9 O 0.866 1.0 0.0 0
M  V30 10 O 0.0 -0.5 0.0 0 CHG=-1
M  V30 11 N 2.598 -1.9999 0.0 0
M  V30 12 C 4.3301 -1.9999 0.0 0
M  V30 13 C 5.1961 -0.4999 0.0 0
M  V30 14 C 2.598 -2.9999 0.0 0
M  V30 15 C 5.1961 -1.4999 0.0 0
M  V30 16 C 4.3301 -2.9999 0.0 0
M  V30 17 C 2.098 -3.866 0.0 0
M  V30 18 C 3.098 -3.866 0.0 0
M  V30 19 C 6.0621 -1.9999 0.0 0
M  V30 20 C 6.0621 -2.9999 0.0 0
M  V30 21 C 6.9282 -1.4999 0.0 0
M  V30 22 N 6.9282 -3.4999 0.0 0
M  V30 23 C 7.7942 -1.9999 0.0 0
M  V30 24 C 7.7942 -2.9999 0.0 0
M  V30 25 C 8.6602 -1.4999 0.0 0
M  V30 26 N 8.6602 -3.4999 0.0 0
M  V30 27 C 9.5262 -2.9999 0.0 0
M  V30 END ATOM
M  V30 BEGIN BOND
M  V30 1 2 1 2
M  V30 2 1 2 3
M  V30 3 1 2 4
M  V30 4 1 3 5
M  V30 5 2 3 6
M  V30 6 2 4 7
M  V30 7 1 4 8
M  V30 8 2 5 9
M  V30 9 1 5 10
M  V30 10 1 6 11
M  V30 11 1 7 12
M  V30 12 2 8 13
M  V30 13 1 11 14
M  V30 14 2 12 15
M  V30 15 1 12 16
M  V30 16 1 14 17
M  V30 17 1 14 18
M  V30 18 1 15 19
M  V30 19 2 19 20
M  V30 20 1 19 21
M  V30 21 1 20 22
M  V30 22 2 21 23
M  V30 23 2 22 24
M  V30 24 1 23 25
M  V30 25 1 24 26
M  V30 26 1 26 27
M  V30 27 1 7 11
M  V30 28 1 13 15
M  V30 29 1 17 18
M  V30 30 1 23 24
M  V30 END BOND
M  V30 END CTAB
M  END
>  <Molecule Name>


>  <status>
-

>  <cas>
245765-41-7

>  <name>
OZENOXACIN

>  <ID>
1864

>  <Smiles>
Cc1cc(-c(cc2)c(C)c(N(C3CC3)C=C3C([O-])=O)c2C3=O)cnc1NC

$$$$

Actelion Java MolfileCreator 2.0

  0  0  0  0  0  0              0 V3000
M  V30 BEGIN CTAB
M  V30 COUNTS 16 17 0 0 0
M  V30 BEGIN ATOM
M  V30 1 Cl 1.732 1.4999 0.0 0
M  V30 2 C 2.598 1.0 0.0 0
M  V30 3 C 2.598 0.0 0.0 0
M  V30 4 C 3.4641 1.4999 0.0 0
M  V30 5 O 1.732 -0.5 0.0 0
M  V30 6 C 3.4641 -0.5 0.0 0
M  V30 7 C 4.3301 1.0 0.0 0
M  V30 8 C 0.866 0.0 0.0 0 CFG=2
M  V30 9 Cl 3.4641 -1.5 0.0 0
M  V30 10 C 4.3301 0.0 0.0 0
M  V30 11 C 0.0 -0.5 0.0 0
M  V30 12 C 0.866 0.9999 0.0 0
M  V30 13 N -0.1045 -1.4945 0.0 0
M  V30 14 N -0.9135 -0.0932 0.0 0
M  V30 15 C -1.0826 -1.7024 0.0 0
M  V30 16 C -1.5826 -0.8364 0.0 0
M  V30 END ATOM
M  V30 BEGIN BOND
M  V30 1 1 1 2
M  V30 2 2 2 3
M  V30 3 1 2 4
M  V30 4 1 3 5
M  V30 5 1 3 6
M  V30 6 2 4 7
M  V30 7 1 8 5 CFG=3
M  V30 8 1 6 9
M  V30 9 2 6 10
M  V30 10 1 8 11
M  V30 11 1 8 12
M  V30 12 2 11 13
M  V30 13 1 11 14
M  V30 14 1 13 15
M  V30 15 1 14 16
M  V30 16 1 7 10
M  V30 17 1 15 16
M  V30 END BOND
M  V30 BEGIN COLLECTION
M  V30 MDLV30/STERAC1 ATOMS=(1 8)
M  V30 END COLLECTION
M  V30 END CTAB
M  END
>  <Molecule Name>


>  <status>
-

>  <cas>
31036-80-3

>  <name>
LOFEXIDINE

>  <ID>
1865

>  <Smiles>
CC(C1=NCCN1)Oc(c(Cl)ccc1)c1Cl

$$$$

Actelion Java MolfileCreator 2.0

  0  0  0  0  0  0              0 V3000
M  V30 BEGIN CTAB
M  V30 COUNTS 16 17 0 0 0
M  V30 BEGIN ATOM
M  V30 1 Cl 1.732 1.4999 0.0 0
M  V30 2 C 2.598 1.0 0.0 0
M  V30 3 C 2.598 0.0 0.0 0
M  V30 4 C 3.4641 1.4999 0.0 0
M  V30 5 O 1.732 -0.5 0.0 0
M  V30 6 C 3.4641 -0.5 0.0 0
M  V30 7 C 4.3301 1.0 0.0 0
M  V30 8 C 0.866 0.0 0.0 0 CFG=2
M  V30 9 Cl 3.4641 -1.5 0.0 0
M  V30 10 C 4.3301 0.0 0.0 0
M  V30 11 C 0.0 -0.5 0.0 0
M  V30 12 C 0.866 0.9999 0.0 0
M  V30 13 N -0.1045 -1.4945 0.0 0
M  V30 14 N -0.9135 -0.0932 0.0 0
M  V30 15 C -1.0826 -1.7024 0.0 0
M  V30 16 C -1.5826 -0.8364 0.0 0
M  V30 END ATOM
M  V30 BEGIN BOND
M  V30 1 1 1 2
M  V30 2 2 2 3
M  V30 3 1 2 4
M  V30 4 1 3 5
M  V30 5 1 3 6
M  V30 6 2 4 7
M  V30 7 1 8 5 CFG=3
M  V30 8 1 6 9
M  V30 9 2 6 10
M  V30 10 1 8 11
M  V30 11 1 8 12
M  V30 12 2 11 13
M  V30 13 1 11 14
M  V30 14 1 13 15
M  V30 15 1 14 16
M  V30 16 1 7 10
M  V30 17 1 15 16
M  V30 END BOND
M  V30 BEGIN COLLECTION
M  V30 MDLV30/STERAC1 ATOMS=(1 8)
M  V30 END COLLECTION
M  V30 END CTAB
M  END
>  <Molecule Name>


>  <status>
-

>  <cas>
31036-80-3

>  <name>
LOFEXIDINE

>  <ID>
1866

>  <Smiles>
CC(C1=NCCN1)Oc(c(Cl)ccc1)c1Cl

$$$$

Actelion Java MolfileCreator 2.0

  0  0  0  0  0  0              0 V3000
M  V30 BEGIN CTAB
M  V30 COUNTS 40 43 0 0 0
M  V30 BEGIN ATOM
M  V30 1 P 3.8971 0.0 0.0 0
M  V30 2 O 4.6471 -1.299 0.0 0
M  V30 3 O 2.598 -0.75 0.0 0
M  V30 4 O 5.1961 0.75 0.0 0 CHG=-1
M  V30 5 O 3.1471 1.299 0.0 0 CHG=-1
M  V30 6 C 1.299 0.0 0.0 0
M  V30 7 N 0.0 -0.75 0.0 0
M  V30 8 C -1.299 0.0 0.0 0
M  V30 9 C 0.0 -2.25 0.0 0
M  V30 10 N -1.299 1.5 0.0 0
M  V30 11 C -2.598 -0.75 0.0 0
M  V30 12 O 1.299 -3.0 0.0 0
M  V30 13 C -1.299 -3.0 0.0 0
M  V30 14 C -2.598 2.25 0.0 0
M  V30 15 O -2.598 -2.25 0.0 0
M  V30 16 C -3.8971 0.0 0.0 0
M  V30 17 C -2.049 -4.299 0.0 0
M  V30 18 C -0.549 -4.299 0.0 0
M  V30 19 N -2.598 3.75 0.0 0
M  V30 20 C -3.8971 1.5 0.0 0
M  V30 21 C -3.8971 4.5 0.0 0
M  V30 22 N -3.8971 6.0 0.0 0
M  V30 23 C -5.1961 3.75 0.0 0
M  V30 24 C -5.1961 6.75 0.0 0
M  V30 25 F -5.1961 2.25 0.0 0
M  V30 26 C -6.4951 4.5 0.0 0
M  V30 27 N -6.4951 6.0 0.0 0
M  V30 28 N -5.1961 8.25 0.0 0
M  V30 29 C -6.4951 9.0 0.0 0
M  V30 30 C -6.4951 10.5 0.0 0
M  V30 31 C -7.7942 8.25 0.0 0
M  V30 32 C -7.7942 11.25 0.0 0
M  V30 33 C -9.0932 9.0 0.0 0
M  V30 34 O -7.7942 12.75 0.0 0
M  V30 35 C -9.0932 10.5 0.0 0
M  V30 36 O -10.3923 8.25 0.0 0
M  V30 37 C -9.0932 13.5 0.0 0
M  V30 38 O -10.3923 11.25 0.0 0
M  V30 39 C -10.3923 6.75 0.0 0
M  V30 40 C -11.6913 10.5 0.0 0
M  V30 END ATOM
M  V30 BEGIN BOND
M  V30 1 2 1 2
M  V30 2 1 1 3
M  V30 3 1 1 4
M  V30 4 1 1 5
M  V30 5 1 3 6
M  V30 6 1 6 7
M  V30 7 1 7 8
M  V30 8 1 7 9
M  V30 9 2 8 10
M  V30 10 1 8 11
M  V30 11 2 9 12
M  V30 12 1 9 13
M  V30 13 1 10 14
M  V30 14 1 11 15
M  V30 15 2 11 16
M  V30 16 1 13 17
M  V30 17 1 13 18
M  V30 18 1 14 19
M  V30 19 2 14 20
M  V30 20 1 19 21
M  V30 21 2 21 22
M  V30 22 1 21 23
M  V30 23 1 22 24
M  V30 24 1 23 25
M  V30 25 2 23 26
M  V30 26 2 24 27
M  V30 27 1 24 28
M  V30 28 1 28 29
M  V30 29 2 29 30
M  V30 30 1 29 31
M  V30 31 1 30 32
M  V30 32 2 31 33
M  V30 33 1 32 34
M  V30 34 2 32 35
M  V30 35 1 33 36
M  V30 36 1 34 37
M  V30 37 1 35 38
M  V30 38 1 36 39
M  V30 39 1 38 40
M  V30 40 1 13 15
M  V30 41 1 16 20
M  V30 42 1 26 27
M  V30 43 1 33 35
M  V30 END BOND
M  V30 END CTAB
M  END
>  <Molecule Name>


>  <status>
-

>  <cas>
901119-35-5

>  <name>
FOSTAMATINIB

>  <ID>
1867

>  <Smiles>
CC1(C)Oc2ccc(Nc3nc(Nc(cc4OC)cc(OC)c4OC)ncc3F)nc2N(COP([O-])([O-])=O)C1=O

$$$$

Actelion Java MolfileCreator 2.0

  0  0  0  0  0  0              0 V3000
M  V30 BEGIN CTAB
M  V30 COUNTS 34 37 0 0 0
M  V30 BEGIN ATOM
M  V30 1 F 3.8971 1.5 0.0 0
M  V30 2 C 3.8971 0.0 0.0 0
M  V30 3 C 2.598 -0.75 0.0 0
M  V30 4 C 5.1961 -0.75 0.0 0
M  V30 5 N 2.598 -2.25 0.0 0
M  V30 6 N 1.299 0.0 0.0 0
M  V30 7 N 5.1961 -2.25 0.0 0
M  V30 8 C 3.8971 -3.0 0.0 0
M  V30 9 C 0.0 -0.75 0.0 0
M  V30 10 N 3.8971 -4.5 0.0 0
M  V30 11 N -1.299 0.0 0.0 0
M  V30 12 C 0.0 -2.25 0.0 0
M  V30 13 C 5.1961 -5.25 0.0 0
M  V30 14 C -2.598 -0.75 0.0 0
M  V30 15 C -1.299 -3.0 0.0 0
M  V30 16 C 5.1961 -6.75 0.0 0
M  V30 17 C 6.4951 -4.5 0.0 0
M  V30 18 N -3.8971 0.0 0.0 0
M  V30 19 C -2.598 -2.25 0.0 0
M  V30 20 C 6.4951 -7.5 0.0 0
M  V30 21 C 7.7942 -5.25 0.0 0
M  V30 22 C -5.1961 -0.75 0.0 0
M  V30 23 O -3.8971 -3.0 0.0 0
M  V30 24 O 6.4951 -9.0 0.0 0
M  V30 25 C 7.7942 -6.75 0.0 0
M  V30 26 O 9.0932 -4.5 0.0 0
M  V30 27 O -6.4951 0.0 0.0 0
M  V30 28 C -5.1961 -2.25 0.0 0
M  V30 29 C 7.7942 -9.75 0.0 0
M  V30 30 O 9.0932 -7.5 0.0 0
M  V30 31 C 9.0932 -3.0 0.0 0
M  V30 32 C -6.6961 -2.2499 0.0 0
M  V30 33 C -5.9461 -3.549 0.0 0
M  V30 34 C 10.3923 -6.75 0.0 0
M  V30 END ATOM
M  V30 BEGIN BOND
M  V30 1 1 1 2
M  V30 2 2 2 3
M  V30 3 1 2 4
M  V30 4 1 3 5
M  V30 5 1 3 6
M  V30 6 2 4 7
M  V30 7 2 5 8
M  V30 8 1 6 9
M  V30 9 1 8 10
M  V30 10 2 9 11
M  V30 11 1 9 12
M  V30 12 1 10 13
M  V30 13 1 11 14
M  V30 14 2 12 15
M  V30 15 2 13 16
M  V30 16 1 13 17
M  V30 17 1 14 18
M  V30 18 2 14 19
M  V30 19 1 16 20
M  V30 20 2 17 21
M  V30 21 1 18 22
M  V30 22 1 19 23
M  V30 23 1 20 24
M  V30 24 2 20 25
M  V30 25 1 21 26
M  V30 26 2 22 27
M  V30 27 1 22 28
M  V30 28 1 24 29
M  V30 29 1 25 30
M  V30 30 1 26 31
M  V30 31 1 28 32
M  V30 32 1 28 33
M  V30 33 1 30 34
M  V30 34 1 7 8
M  V30 35 1 15 19
M  V30 36 1 21 25
M  V30 37 1 23 28
M  V30 END BOND
M  V30 END CTAB
M  END
>  <Molecule Name>


>  <status>
-

>  <cas>
841290-80-0

>  <name>
M FOSTAMATINIB

>  <ID>
1868

>  <Smiles>
CC(C)(C(N1)=O)Oc(cc2)c1nc2Nc(nc(Nc(cc1OC)cc(OC)c1OC)nc1)c1F

$$$$

Actelion Java MolfileCreator 2.0

  0  0  0  0  0  0              0 V3000
M  V30 BEGIN CTAB
M  V30 COUNTS 75 78 0 0 0
M  V30 BEGIN ATOM
M  V30 1 O 27.6337 0.4509 0.0 0
M  V30 2 C 27.3218 1.9181 0.0 0
M  V30 3 N 28.4365 2.9218 0.0 0
M  V30 4 C 25.8952 2.3816 0.0 0 CFG=1
M  V30 5 C 29.8631 2.4583 0.0 0 CFG=2
M  V30 6 N 24.6817 1.4999 0.0 0
M  V30 7 C 25.4317 3.8082 0.0 0
M  V30 8 C 30.175 0.9911 0.0 0
M  V30 9 C 30.9778 3.462 0.0 0
M  V30 10 C 24.6817 0.0 0.0 0
M  V30 11 C 23.4681 2.3816 0.0 0
M  V30 12 C 23.9317 3.8082 0.0 0
M  V30 13 O 31.6015 0.5275 0.0 0
M  V30 14 O 29.0602 -0.0125 0.0 0 CHG=-1
M  V30 15 C 32.4044 2.9984 0.0 0
M  V30 16 O 25.9807 -0.75 0.0 0
M  V30 17 C 23.3826 -0.75 0.0 0 CFG=1
M  V30 18 C 33.5191 4.0021 0.0 0
M  V30 19 C 32.7163 1.5312 0.0 0
M  V30 20 N 22.0836 0.0 0.0 0
M  V30 21 C 23.3826 -2.2499 0.0 0
M  V30 22 C 34.9457 3.5386 0.0 0
M  V30 23 C 34.1428 1.0677 0.0 0
M  V30 24 C 20.7846 -0.75 0.0 0
M  V30 25 C 24.6817 -2.9999 0.0 0
M  V30 26 C 35.2576 2.0714 0.0 0
M  V30 27 O 20.7846 -2.25 0.0 0
M  V30 28 C 19.4855 0.0 0.0 0 CFG=1
M  V30 29 N 24.8385 -4.4917 0.0 0
M  V30 30 C 26.052 -2.3898 0.0 0
M  V30 31 N 18.1865 -0.75 0.0 0
M  V30 32 C 19.4855 1.5 0.0 0 CFG=2
M  V30 33 C 26.3057 -4.8036 0.0 0
M  V30 34 N 27.0557 -3.5046 0.0 0
M  V30 35 C 16.8874 0.0 0.0 0
M  V30 36 C 20.7846 2.25 0.0 0
M  V30 37 C 18.1865 2.25 0.0 0
M  V30 38 O 16.8874 1.5 0.0 0
M  V30 39 C 15.5884 -0.75 0.0 0 CFG=1
M  V30 40 C 20.7846 3.75 0.0 0
M  V30 41 N 14.2894 0.0 0.0 0
M  V30 42 C 15.5884 -2.2499 0.0 0
M  V30 43 C 12.9903 -0.75 0.0 0
M  V30 44 C 16.8874 -3.0 0.0 0
M  V30 45 O 12.9903 -2.25 0.0 0
M  V30 46 C 11.6913 0.0 0.0 0 CFG=1
M  V30 47 C 16.8874 -4.5 0.0 0
M  V30 48 C 18.1865 -2.25 0.0 0
M  V30 49 N 10.3923 -0.75 0.0 0
M  V30 50 C 11.6913 1.5 0.0 0
M  V30 51 C 18.1865 -5.25 0.0 0
M  V30 52 C 19.4855 -3.0 0.0 0
M  V30 53 C 9.0932 0.0 0.0 0
M  V30 54 C 12.9903 2.25 0.0 0
M  V30 55 C 10.3923 2.25 0.0 0
M  V30 56 C 19.4855 -4.5 0.0 0
M  V30 57 O 9.0932 1.5 0.0 0
M  V30 58 C 7.7942 -0.75 0.0 0 CFG=1
M  V30 59 O 20.7846 -5.25 0.0 0
M  V30 60 N 7.7942 -2.25 0.0 0
M  V30 61 C 6.4951 0.0 0.0 0
M  V30 62 C 9.0932 -3.0 0.0 0
M  V30 63 C 5.1961 -0.75 0.0 0
M  V30 64 O 10.3923 -2.25 0.0 0
M  V30 65 C 9.0932 -4.5 0.0 0 CFG=1
M  V30 66 C 3.8971 0.0 0.0 0
M  V30 67 N 7.7942 -5.25 0.0 0
M  V30 68 C 10.3923 -5.25 0.0 0
M  V30 69 N 2.598 -0.75 0.0 0
M  V30 70 C 10.3923 -6.75 0.0 0
M  V30 71 C 1.299 0.0 0.0 0
M  V30 72 O 9.0932 -7.5 0.0 0
M  V30 73 O 11.6913 -7.5 0.0 0 CHG=-1
M  V30 74 N 1.299 1.5 0.0 0 CHG=1
M  V30 75 N 0.0 -0.75 0.0 0
M  V30 END ATOM
M  V30 BEGIN BOND
M  V30 1 2 1 2
M  V30 2 1 2 3
M  V30 3 1 4 2 CFG=1
M  V30 4 1 5 3 CFG=1
M  V30 5 1 4 6
M  V30 6 1 4 7
M  V30 7 1 5 8
M  V30 8 1 5 9
M  V30 9 1 6 10
M  V30 10 1 6 11
M  V30 11 1 7 12
M  V30 12 2 8 13
M  V30 13 1 8 14
M  V30 14 1 9 15
M  V30 15 2 10 16
M  V30 16 1 17 10
M  V30 17 2 15 18
M  V30 18 1 15 19
M  V30 19 1 17 20 CFG=3
M  V30 20 1 17 21
M  V30 21 1 18 22
M  V30 22 2 19 23
M  V30 23 1 20 24
M  V30 24 1 21 25
M  V30 25 2 22 26
M  V30 26 2 24 27
M  V30 27 1 28 24
M  V30 28 1 25 29
M  V30 29 2 25 30
M  V30 30 1 28 31 CFG=1
M  V30 31 1 32 28
M  V30 32 1 29 33
M  V30 33 1 30 34
M  V30 34 1 31 35
M  V30 35 1 32 36
M  V30 36 1 32 37 CFG=1
M  V30 37 2 35 38
M  V30 38 1 39 35
M  V30 39 1 36 40
M  V30 40 1 39 41 CFG=3
M  V30 41 1 39 42
M  V30 42 1 41 43
M  V30 43 1 42 44
M  V30 44 2 43 45
M  V30 45 1 46 43
M  V30 46 2 44 47
M  V30 47 1 44 48
M  V30 48 1 46 49 CFG=1
M  V30 49 1 46 50
M  V30 50 1 47 51
M  V30 51 2 48 52
M  V30 52 1 49 53
M  V30 53 1 50 54
M  V30 54 1 50 55
M  V30 55 2 51 56
M  V30 56 2 53 57
M  V30 57 1 58 53
M  V30 58 1 56 59
M  V30 59 1 58 60 CFG=1
M  V30 60 1 58 61
M  V30 61 1 60 62
M  V30 62 1 61 63
M  V30 63 2 62 64
M  V30 64 1 65 62
M  V30 65 1 63 66
M  V30 66 1 65 67 CFG=3
M  V30 67 1 65 68
M  V30 68 1 66 69
M  V30 69 1 68 70
M  V30 70 1 69 71
M  V30 71 2 70 72
M  V30 72 1 70 73
M  V30 73 2 71 74
M  V30 74 1 71 75
M  V30 75 1 11 12
M  V30 76 1 23 26
M  V30 77 2 33 34
M  V30 78 1 52 56
M  V30 END BOND
M  V30 BEGIN COLLECTION
M  V30 MDLV30/STERAC1 ATOMS=(9 4 5 17 28 32 39 46 58 65)
M  V30 END COLLECTION
M  V30 END CTAB
M  END
>  <Molecule Name>


>  <status>
-

>  <cas>
4474-91-3

>  <name>
ANGIOTENSIN II

>  <ID>
1869

>  <Smiles>
CC[C@H](C)[C@@H](C(N[C@@H](Cc1cnc[nH]1)C(N(CCC1)[C@@H]1C(N[C@@H](Cc1ccccc1)C([O-])=O)=O)=O)=O)NC([C@H](Cc(cc1)ccc1O)NC([C@H](C(C)C)NC([C@H](CCCNC(N)=[NH2+])NC([C@H](CC([O-])=O)N)=O)=O)=O)=O

$$$$
[CH3:6][c:2]1[n:3][cH:4][c:5]([N:11](=[O:13])=[O:12])[n:1]1[CH2:7][C@H:8]([C...
Actelion Java MolfileCreator 2.0

  0  0  0  0  0  0              0 V3000
M  V30 BEGIN CTAB
M  V30 COUNTS 13 13 0 0 0
M  V30 BEGIN ATOM
M  V30 1 O 2.1673 2.6418 0.0 0
M  V30 2 N 1.9594 1.6636 0.0 0 CHG=1
M  V30 3 O 1.0084 1.3546 0.0 0 CHG=-1
M  V30 4 C 2.7026 0.9945 0.0 0
M  V30 5 N 2.598 0.0 0.0 0
M  V30 6 C 3.6807 1.2024 0.0 0
M  V30 7 C 3.5116 -0.4067 0.0 0
M  V30 8 C 1.732 -0.5 0.0 0
M  V30 9 N 4.1807 0.3364 0.0 0
M  V30 10 C 3.7195 -1.3848 0.0 0
M  V30 11 C 1.732 -1.5 0.0 0 CFG=1
M  V30 12 O 2.598 -2.0 0.0 0
M  V30 13 C 0.866 -2.0 0.0 0
M  V30 END ATOM
M  V30 BEGIN BOND
M  V30 1 2 1 2
M  V30 2 1 2 3
M  V30 3 1 2 4
M  V30 4 1 4 5
M  V30 5 2 4 6
M  V30 6 1 5 7
M  V30 7 1 5 8
M  V30 8 1 6 9
M  V30 9 1 7 10
M  V30 10 1 11 8
M  V30 11 1 11 12 CFG=1
M  V30 12 1 11 13
M  V30 13 2 7 9
M  V30 END BOND
M  V30 BEGIN COLLECTION
M  V30 MDLV30/STERAC1 ATOMS=(1 11)
M  V30 END COLLECTION
M  V30 END CTAB
M  END
>  <Molecule Name>
[CH3:6][c:2]1[n:3][cH:4][c:5]([N:11](=[O:13])=[O:12])[n:1]1[CH2:7][C@H:8]([C...

>  <status>
-

>  <cas>
3366-95-8

>  <name>
SECNIDAZOLE

>  <ID>
1870

>  <Smiles>
CC(Cn1c([N+]([O-])=O)cnc1C)O

$$$$
Cc1ncc(N(=O)=O)n1C[C@@H](C)O
Actelion Java MolfileCreator 2.0

  0  0  0  0  0  0              0 V3000
M  V30 BEGIN CTAB
M  V30 COUNTS 13 13 0 0 0
M  V30 BEGIN ATOM
M  V30 1 O 2.1673 2.6418 0.0 0
M  V30 2 N 1.9594 1.6636 0.0 0 CHG=1
M  V30 3 O 1.0084 1.3546 0.0 0 CHG=-1
M  V30 4 C 2.7026 0.9945 0.0 0
M  V30 5 N 2.598 0.0 0.0 0
M  V30 6 C 3.6807 1.2024 0.0 0
M  V30 7 C 3.5116 -0.4067 0.0 0
M  V30 8 C 1.732 -0.5 0.0 0
M  V30 9 N 4.1807 0.3364 0.0 0
M  V30 10 C 3.7195 -1.3848 0.0 0
M  V30 11 C 1.732 -1.5 0.0 0 CFG=1
M  V30 12 O 2.598 -2.0 0.0 0
M  V30 13 C 0.866 -2.0 0.0 0
M  V30 END ATOM
M  V30 BEGIN BOND
M  V30 1 2 1 2
M  V30 2 1 2 3
M  V30 3 1 2 4
M  V30 4 1 4 5
M  V30 5 2 4 6
M  V30 6 1 5 7
M  V30 7 1 5 8
M  V30 8 1 6 9
M  V30 9 1 7 10
M  V30 10 1 11 8
M  V30 11 1 11 12 CFG=1
M  V30 12 1 11 13
M  V30 13 2 7 9
M  V30 END BOND
M  V30 BEGIN COLLECTION
M  V30 MDLV30/STERAC1 ATOMS=(1 11)
M  V30 END COLLECTION
M  V30 END CTAB
M  END
>  <Molecule Name>
Cc1ncc(N(=O)=O)n1C[C@@H](C)O

>  <status>
-

>  <cas>
3366-95-8

>  <name>
SECNIDAZOLE

>  <ID>
1871

>  <Smiles>
CC(Cn1c([N+]([O-])=O)cnc1C)O

$$$$
O=C(Cn1ccnc1N(=O)=O)NCc2ccccc2
Actelion Java MolfileCreator 2.0

  0  0  0  0  0  0              0 V3000
M  V30 BEGIN CTAB
M  V30 COUNTS 19 20 0 0 0
M  V30 BEGIN ATOM
M  V30 1 O 4.7084 -2.054 0.0 0
M  V30 2 N 5.4515 -1.3848 0.0 0 CHG=1
M  V30 3 O 6.4026 -1.6939 0.0 0 CHG=-1
M  V30 4 C 5.2436 -0.4067 0.0 0
M  V30 5 N 5.9128 0.3364 0.0 0
M  V30 6 N 4.3301 0.0 0.0 0
M  V30 7 C 5.4128 1.2024 0.0 0
M  V30 8 C 4.4346 0.9945 0.0 0
M  V30 9 C 3.4641 -0.5 0.0 0
M  V30 10 C 2.598 0.0 0.0 0
M  V30 11 O 2.598 1.0 0.0 0
M  V30 12 N 1.732 -0.5 0.0 0
M  V30 13 C 0.866 0.0 0.0 0
M  V30 14 C 0.0 -0.5 0.0 0
M  V30 15 C -0.866 0.0 0.0 0
M  V30 16 C 0.0 -1.4999 0.0 0
M  V30 17 C -1.732 -0.4999 0.0 0
M  V30 18 C -0.866 -1.9999 0.0 0
M  V30 19 C -1.732 -1.4999 0.0 0
M  V30 END ATOM
M  V30 BEGIN BOND
M  V30 1 2 1 2
M  V30 2 1 2 3
M  V30 3 1 2 4
M  V30 4 2 4 5
M  V30 5 1 4 6
M  V30 6 1 5 7
M  V30 7 1 6 8
M  V30 8 1 6 9
M  V30 9 1 9 10
M  V30 10 2 10 11
M  V30 11 1 10 12
M  V30 12 1 12 13
M  V30 13 1 13 14
M  V30 14 2 14 15
M  V30 15 1 14 16
M  V30 16 1 15 17
M  V30 17 2 16 18
M  V30 18 2 17 19
M  V30 19 2 7 8
M  V30 20 1 18 19
M  V30 END BOND
M  V30 END CTAB
M  END
>  <Molecule Name>
O=C(Cn1ccnc1N(=O)=O)NCc2ccccc2

>  <status>
-

>  <cas>
22994-85-0

>  <name>
BENZNIDAZOLE

>  <ID>
1872

>  <Smiles>
[O-][N+](c1nccn1CC(NCc1ccccc1)=O)=O

$$$$

Actelion Java MolfileCreator 2.0

  0  0  0  0  0  0              0 V3000
M  V30 BEGIN CTAB
M  V30 COUNTS 20 21 0 0 0
M  V30 BEGIN ATOM
M  V30 1 S 4.3776 -0.0932 0.0 0
M  V30 2 C 3.4641 -0.5 0.0 0
M  V30 3 C 5.0467 -0.8364 0.0 0
M  V30 4 C 3.5686 -1.4945 0.0 0
M  V30 5 C 2.598 0.0 0.0 0
M  V30 6 C 4.5467 -1.7024 0.0 0
M  V30 7 C 1.732 -0.5 0.0 0
M  V30 8 O 1.732 -1.5 0.0 0
M  V30 9 N 0.866 0.0 0.0 0
M  V30 10 C 0.0 -0.5 0.0 0 CFG=2
M  V30 11 C -0.866 0.0 0.0 0
M  V30 12 B 0.0 -1.4999 0.0 0
M  V30 13 C -1.732 -0.4999 0.0 0
M  V30 14 O -0.866 -1.9999 0.0 0
M  V30 15 O 0.866 -2.0 0.0 0
M  V30 16 C -1.732 -1.4999 0.0 0 CFG=1
M  V30 17 C -2.598 -1.9999 0.0 0
M  V30 18 C -3.4641 -1.4999 0.0 0
M  V30 19 O -3.4641 -0.4999 0.0 0
M  V30 20 O -4.3301 -1.9999 0.0 0 CHG=-1
M  V30 END ATOM
M  V30 BEGIN BOND
M  V30 1 1 1 2
M  V30 2 1 1 3
M  V30 3 2 2 4
M  V30 4 1 2 5
M  V30 5 2 3 6
M  V30 6 1 5 7
M  V30 7 2 7 8
M  V30 8 1 7 9
M  V30 9 1 10 9 CFG=1
M  V30 10 1 10 11
M  V30 11 1 10 12
M  V30 12 1 11 13
M  V30 13 1 12 14
M  V30 14 1 12 15
M  V30 15 1 16 13
M  V30 16 1 16 17 CFG=1
M  V30 17 1 17 18
M  V30 18 2 18 19
M  V30 19 1 18 20
M  V30 20 1 4 6
M  V30 21 1 14 16
M  V30 END BOND
M  V30 BEGIN COLLECTION
M  V30 MDLV30/STERAC1 ATOMS=(2 10 16)
M  V30 END COLLECTION
M  V30 END CTAB
M  END
>  <Molecule Name>


>  <status>
-

>  <cas>
1360457-46-0

>  <name>
VABORBACTAM

>  <ID>
1873

>  <Smiles>
[O-]C(C[C@@H](CC[C@H]1NC(Cc2cccs2)=O)OB1O)=O

$$$$

Actelion Java MolfileCreator 2.0

  0  0  0  0  0  0              0 V3000
M  V30 BEGIN CTAB
M  V30 COUNTS 30 33 0 0 0
M  V30 BEGIN ATOM
M  V30 1 Cl 6.9282 2.5 0.0 0
M  V30 2 C 6.9282 1.5 0.0 0
M  V30 3 C 6.0621 1.0 0.0 0
M  V30 4 C 7.7942 1.0 0.0 0
M  V30 5 C 6.0621 0.0 0.0 0
M  V30 6 C 5.1961 1.5 0.0 0
M  V30 7 C 7.7942 0.0 0.0 0
M  V30 8 C 6.9282 -0.4999 0.0 0
M  V30 9 C 4.3301 1.0 0.0 0
M  V30 10 C 6.9282 -1.4999 0.0 0 CFG=2
M  V30 11 C 3.4641 1.5 0.0 0
M  V30 12 C 4.3301 0.0 0.0 0
M  V30 13 O 6.4929 -2.4003 0.0 0
M  V30 14 O 7.9189 -1.6357 0.0 0
M  V30 15 C 5.577 -1.6851 0.0 0 CFG=1
M  V30 16 C 2.598 0.9999 0.0 0
M  V30 17 C 3.4641 -0.4999 0.0 0
M  V30 18 C 7.2146 -3.0924 0.0 0 CFG=2
M  V30 19 C 8.0959 -2.6199 0.0 0
M  V30 20 O 4.9477 -0.9079 0.0 0
M  V30 21 C 5.2382 -2.626 0.0 0 CFG=1
M  V30 22 C 2.598 0.0 0.0 0
M  V30 23 C 5.8836 -3.3898 0.0 0 CFG=1
M  V30 24 C 7.5631 -4.0297 0.0 0
M  V30 25 O 4.254 -2.803 0.0 0
M  V30 26 O 1.732 -0.5 0.0 0
M  V30 27 O 5.5646 -4.3375 0.0 0
M  V30 28 O 8.5491 -4.1966 0.0 0
M  V30 29 C 0.866 0.0 0.0 0
M  V30 30 C 0.0 -0.5 0.0 0
M  V30 END ATOM
M  V30 BEGIN BOND
M  V30 1 1 1 2
M  V30 2 2 2 3
M  V30 3 1 2 4
M  V30 4 1 3 5
M  V30 5 1 3 6
M  V30 6 2 4 7
M  V30 7 2 5 8
M  V30 8 1 6 9
M  V30 9 1 10 8 CFG=1
M  V30 10 2 9 11
M  V30 11 1 9 12
M  V30 12 1 10 13
M  V30 13 1 10 14
M  V30 14 1 15 10
M  V30 15 1 11 16
M  V30 16 2 12 17
M  V30 17 1 18 13
M  V30 18 1 14 19
M  V30 19 1 15 20 CFG=3
M  V30 20 1 21 15
M  V30 21 2 16 22
M  V30 22 1 23 18
M  V30 23 1 18 24 CFG=1
M  V30 24 1 21 25 CFG=1
M  V30 25 1 22 26
M  V30 26 1 23 27 CFG=3
M  V30 27 1 24 28
M  V30 28 1 26 29
M  V30 29 1 29 30
M  V30 30 1 7 8
M  V30 31 1 17 22
M  V30 32 1 18 19
M  V30 33 1 21 23
M  V30 END BOND
M  V30 BEGIN COLLECTION
M  V30 MDLV30/STERAC1 ATOMS=(5 10 15 18 21 23)
M  V30 END COLLECTION
M  V30 END CTAB
M  END
>  <Molecule Name>


>  <status>
-

>  <cas>
1210344-57-2

>  <name>
ERTUGLIFLOZIN

>  <ID>
1874

>  <Smiles>
CCOc1ccc(Cc(cc([C@@]([C@H]([C@@H]2O)O)(OC3)O[C@@]3(CO)[C@@H]2O)cc2)c2Cl)cc1

$$$$

Actelion Java MolfileCreator 2.0

  0  0  0  0  0  0              0 V3000
M  V30 BEGIN CTAB
M  V30 COUNTS 35 39 0 0 0
M  V30 BEGIN ATOM
M  V30 1 O 5.1961 5.5 0.0 0
M  V30 2 C 5.1961 4.5 0.0 0
M  V30 3 N 6.0621 4.0 0.0 0
M  V30 4 C 4.3301 4.0 0.0 0
M  V30 5 C 6.0621 3.0 0.0 0
M  V30 6 C 4.3301 3.0 0.0 0
M  V30 7 C 3.4641 4.5 0.0 0
M  V30 8 N 5.1961 2.5 0.0 0
M  V30 9 N 6.9282 2.4999 0.0 0
M  V30 10 N 3.4641 2.5 0.0 0
M  V30 11 N 2.598 4.0 0.0 0
M  V30 12 C 5.1961 1.5 0.0 0
M  V30 13 C 6.9282 1.4999 0.0 0
M  V30 14 C 7.8792 2.809 0.0 0
M  V30 15 C 2.598 3.0 0.0 0
M  V30 16 C 4.3301 0.9999 0.0 0
M  V30 17 C 6.0621 1.0 0.0 0
M  V30 18 N 7.8792 1.1909 0.0 0
M  V30 19 C 8.467 1.9999 0.0 0
M  V30 20 N 1.732 2.5 0.0 0
M  V30 21 O 3.4641 1.4999 0.0 0
M  V30 22 C 4.3301 0.0 0.0 0
M  V30 23 C 6.0621 0.0 0.0 0
M  V30 24 C 2.598 1.0 0.0 0
M  V30 25 O 3.4641 -0.5 0.0 0
M  V30 26 C 5.1961 -0.4999 0.0 0
M  V30 27 C 2.598 0.0 0.0 0
M  V30 28 C 1.732 -0.5 0.0 0
M  V30 29 C 0.866 0.0 0.0 0
M  V30 30 N 0.0 -0.5 0.0 0
M  V30 31 C -0.866 0.0 0.0 0
M  V30 32 C 0.0 -1.4999 0.0 0
M  V30 33 C -1.732 -0.4999 0.0 0
M  V30 34 C -0.866 -1.9999 0.0 0
M  V30 35 O -1.732 -1.4999 0.0 0
M  V30 END ATOM
M  V30 BEGIN BOND
M  V30 1 2 1 2
M  V30 2 1 2 3
M  V30 3 1 2 4
M  V30 4 1 3 5
M  V30 5 2 4 6
M  V30 6 1 4 7
M  V30 7 2 5 8
M  V30 8 1 5 9
M  V30 9 1 6 10
M  V30 10 2 7 11
M  V30 11 1 8 12
M  V30 12 1 9 13
M  V30 13 1 9 14
M  V30 14 2 10 15
M  V30 15 2 12 16
M  V30 16 1 12 17
M  V30 17 2 13 18
M  V30 18 1 14 19
M  V30 19 1 15 20
M  V30 20 1 16 21
M  V30 21 1 16 22
M  V30 22 2 17 23
M  V30 23 1 21 24
M  V30 24 1 22 25
M  V30 25 2 22 26
M  V30 26 1 25 27
M  V30 27 1 27 28
M  V30 28 1 28 29
M  V30 29 1 29 30
M  V30 30 1 30 31
M  V30 31 1 30 32
M  V30 32 1 31 33
M  V30 33 1 32 34
M  V30 34 1 33 35
M  V30 35 1 11 15
M  V30 36 1 13 17
M  V30 37 1 18 19
M  V30 38 1 23 26
M  V30 39 1 34 35
M  V30 END BOND
M  V30 END CTAB
M  END
>  <Molecule Name>


>  <status>
-

>  <cas>
1032568-63-0

>  <name>
COPANLISIB

>  <ID>
1875

>  <Smiles>
COc(c(OCCCN1CCOCC1)ccc12)c1N=C(NC(c1cnc(N)nc1)=O)N1C2=NCC1

$$$$

Actelion Java MolfileCreator 2.0

  0  0  0  0  0  0              0 V3000
M  V30 BEGIN CTAB
M  V30 COUNTS 41 45 0 0 0
M  V30 BEGIN ATOM
M  V30 1 F 6.0621 0.0 0.0 0
M  V30 2 C 5.1961 -0.4999 0.0 0
M  V30 3 C 4.3301 0.0 0.0 0
M  V30 4 C 5.1961 -1.4999 0.0 0
M  V30 5 N 4.3301 1.0 0.0 0
M  V30 6 C 3.4641 -0.4999 0.0 0
M  V30 7 C 4.3301 -1.9999 0.0 0
M  V30 8 C 3.4641 1.5 0.0 0
M  V30 9 C 3.4641 -1.4999 0.0 0
M  V30 10 C 2.598 0.0 0.0 0 CFG=1
M  V30 11 N 2.598 0.9999 0.0 0
M  V30 12 N 3.4641 2.5 0.0 0
M  V30 13 C 1.732 -0.5 0.0 0
M  V30 14 C 1.732 1.4999 0.0 0
M  V30 15 C 4.3301 3.0 0.0 0
M  V30 16 C 2.598 3.0 0.0 0
M  V30 17 C 1.732 -1.5 0.0 0
M  V30 18 C 0.866 0.9999 0.0 0
M  V30 19 C 1.732 2.4999 0.0 0
M  V30 20 C 4.3301 4.0 0.0 0
M  V30 21 C 2.598 4.0 0.0 0
M  V30 22 O 2.598 -2.0 0.0 0
M  V30 23 O 0.866 -2.0 0.0 0 CHG=-1
M  V30 24 O 0.866 0.0 0.0 0
M  V30 25 C 0.0 1.4999 0.0 0
M  V30 26 C 0.866 2.9999 0.0 0
M  V30 27 N 3.4641 4.5 0.0 0
M  V30 28 C 0.0 -0.5 0.0 0
M  V30 29 C 0.0 2.4999 0.0 0
M  V30 30 C 0.866 3.9999 0.0 0
M  V30 31 C 3.4641 5.5 0.0 0
M  V30 32 F 1.866 4.0 0.0 0
M  V30 33 F 0.866 4.9999 0.0 0
M  V30 34 F -0.1339 3.9999 0.0 0
M  V30 35 C 4.3301 6.0 0.0 0
M  V30 36 C 2.598 6.0 0.0 0
M  V30 37 C 4.3301 7.0 0.0 0
M  V30 38 C 2.598 7.0 0.0 0
M  V30 39 O 5.1961 7.5 0.0 0
M  V30 40 C 3.4641 7.5 0.0 0
M  V30 41 C 5.1961 8.5 0.0 0
M  V30 END ATOM
M  V30 BEGIN BOND
M  V30 1 1 1 2
M  V30 2 2 2 3
M  V30 3 1 2 4
M  V30 4 1 3 5
M  V30 5 1 3 6
M  V30 6 2 4 7
M  V30 7 2 5 8
M  V30 8 2 6 9
M  V30 9 1 10 6
M  V30 10 1 8 11
M  V30 11 1 8 12
M  V30 12 1 10 13 CFG=3
M  V30 13 1 11 14
M  V30 14 1 12 15
M  V30 15 1 12 16
M  V30 16 1 13 17
M  V30 17 2 14 18
M  V30 18 1 14 19
M  V30 19 1 15 20
M  V30 20 1 16 21
M  V30 21 2 17 22
M  V30 22 1 17 23
M  V30 23 1 18 24
M  V30 24 1 18 25
M  V30 25 2 19 26
M  V30 26 1 20 27
M  V30 27 1 24 28
M  V30 28 2 25 29
M  V30 29 1 26 30
M  V30 30 1 27 31
M  V30 31 1 30 32
M  V30 32 1 30 33
M  V30 33 1 30 34
M  V30 34 2 31 35
M  V30 35 1 31 36
M  V30 36 1 35 37
M  V30 37 2 36 38
M  V30 38 1 37 39
M  V30 39 2 37 40
M  V30 40 1 39 41
M  V30 41 1 7 9
M  V30 42 1 10 11
M  V30 43 1 21 27
M  V30 44 1 26 29
M  V30 45 1 38 40
M  V30 END BOND
M  V30 BEGIN COLLECTION
M  V30 MDLV30/STERAC1 ATOMS=(1 10)
M  V30 END COLLECTION
M  V30 END CTAB
M  END
>  <Molecule Name>


>  <status>
-

>  <cas>
917389-32-3

>  <name>
LETERMOVIR

>  <ID>
1876

>  <Smiles>
COc1cccc(N(CC2)CCN2C(N(C(CC([O-])=O)c2ccc3)c(cc(C(F)(F)F)cc4)c4OC)=Nc2c3F)c1

$$$$

Actelion Java MolfileCreator 2.0

  0  0  0  0  0  0              0 V3000
M  V30 BEGIN CTAB
M  V30 COUNTS 22 24 0 0 0
M  V30 BEGIN ATOM
M  V30 1 O 1.732 1.4999 0.0 0
M  V30 2 C 0.866 0.9999 0.0 0
M  V30 3 O 0.866 0.0 0.0 0
M  V30 4 C 0.0 1.5 0.0 0
M  V30 5 C 0.0485 -0.4719 0.0 0 CFG=1
M  V30 6 C -0.866 1.0 0.0 0
M  V30 7 C 0.0 2.5 0.0 0
M  V30 8 C 0.0 -1.4999 0.0 0 CFG=1
M  V30 9 C -0.866 0.0 0.0 0
M  V30 10 C -1.732 1.4999 0.0 0
M  V30 11 C -0.866 2.9999 0.0 0
M  V30 12 C 0.8553 -2.0179 0.0 0
M  V30 13 C -1.2085 -2.1319 0.0 0 CFG=1
M  V30 14 C -2.0175 -0.7306 0.0 0 CFG=2
M  V30 15 C -1.732 2.5 0.0 0
M  V30 16 O 1.7316 -1.5362 0.0 0
M  V30 17 O 0.8344 -3.0177 0.0 0
M  V30 18 N -1.104 -1.1374 0.0 0
M  V30 19 C -2.1866 -2.3398 0.0 0
M  V30 20 C -2.6866 -1.4738 0.0 0
M  V30 21 C 1.6898 -3.5357 0.0 0
M  V30 22 C -0.3359 -0.6939 0.0 0
M  V30 END ATOM
M  V30 BEGIN BOND
M  V30 1 2 1 2
M  V30 2 1 2 3
M  V30 3 1 2 4
M  V30 4 1 5 3 CFG=1
M  V30 5 2 4 6
M  V30 6 1 4 7
M  V30 7 1 8 5
M  V30 8 1 5 9
M  V30 9 1 6 10
M  V30 10 2 7 11
M  V30 11 1 8 12 CFG=1
M  V30 12 1 13 8
M  V30 13 1 14 9
M  V30 14 2 10 15
M  V30 15 2 12 16
M  V30 16 1 12 17
M  V30 17 1 13 18 CFG=1
M  V30 18 1 13 19
M  V30 19 1 14 20
M  V30 20 1 17 21
M  V30 21 1 18 22
M  V30 22 1 11 15
M  V30 23 1 14 18 CFG=1
M  V30 24 1 19 20
M  V30 END BOND
M  V30 BEGIN COLLECTION
M  V30 MDLV30/STERAC1 ATOMS=(4 5 8 13 14)
M  V30 END COLLECTION
M  V30 END CTAB
M  END
>  <Molecule Name>


>  <status>
-

>  <cas>
50-36-2

>  <name>
COCAINE

>  <ID>
1877

>  <Smiles>
CN([C@H](CC1)C[C@H]2OC(c3ccccc3)=O)[C@@H]1[C@@H]2C(OC)=O

$$$$

Actelion Java MolfileCreator 2.0

  0  0  0  0  0  0              0 V3000
M  V30 BEGIN CTAB
M  V30 COUNTS 42 47 0 0 0
M  V30 BEGIN ATOM
M  V30 1 Cl 5.1961 -0.5 0.0 0
M  V30 2 C 4.3301 0.0 0.0 0
M  V30 3 C 4.3301 1.0 0.0 0
M  V30 4 C 3.4641 -0.4999 0.0 0
M  V30 5 N 3.4641 1.5 0.0 0
M  V30 6 N 5.1961 1.5 0.0 0
M  V30 7 C 2.598 0.0 0.0 0
M  V30 8 C 2.598 1.0 0.0 0
M  V30 9 C 6.0621 0.9999 0.0 0
M  V30 10 C 5.1961 2.4999 0.0 0
M  V30 11 C 1.732 -0.5 0.0 0
M  V30 12 C 6.9282 1.4999 0.0 0
M  V30 13 C 6.0621 2.9999 0.0 0
M  V30 14 O 1.732 -1.5 0.0 0
M  V30 15 N 0.866 0.0 0.0 0
M  V30 16 C 6.9282 2.4999 0.0 0
M  V30 17 C 0.0 -0.5 0.0 0
M  V30 18 C 7.7942 2.9999 0.0 0
M  V30 19 S -0.9135 -0.0932 0.0 0
M  V30 20 N -0.1045 -1.4945 0.0 0
M  V30 21 O 8.6602 2.4999 0.0 0
M  V30 22 O 7.7942 3.9999 0.0 0 CHG=-1
M  V30 23 C -1.5826 -0.8364 0.0 0
M  V30 24 C -1.0826 -1.7024 0.0 0
M  V30 25 N -2.5771 -0.7318 0.0 0
M  V30 26 C -1.4894 -2.6159 0.0 0
M  V30 27 C -2.9839 0.1816 0.0 0
M  V30 28 C -3.1649 -1.5408 0.0 0
M  V30 29 S -2.4675 -2.8238 0.0 0
M  V30 30 C -0.9894 -3.482 0.0 0
M  V30 31 C -3.9784 0.2861 0.0 0
M  V30 32 C -4.1595 -1.4363 0.0 0
M  V30 33 C -2.572 -3.8184 0.0 0
M  V30 34 C -1.6585 -4.2251 0.0 0
M  V30 35 N -4.5662 -0.5228 0.0 0
M  V30 36 Cl -1.4506 -5.2032 0.0 0
M  V30 37 C -5.5607 -0.4182 0.0 0
M  V30 38 C -5.9675 0.4952 0.0 0
M  V30 39 C -6.1485 -1.2273 0.0 0
M  V30 40 C -6.962 0.5997 0.0 0
M  V30 41 C -7.143 -1.1227 0.0 0
M  V30 42 C -7.5498 -0.2092 0.0 0
M  V30 END ATOM
M  V30 BEGIN BOND
M  V30 1 1 1 2
M  V30 2 2 2 3
M  V30 3 1 2 4
M  V30 4 1 3 5
M  V30 5 1 3 6
M  V30 6 2 4 7
M  V30 7 2 5 8
M  V30 8 1 6 9
M  V30 9 1 6 10
M  V30 10 1 7 11
M  V30 11 1 9 12
M  V30 12 1 10 13
M  V30 13 2 11 14
M  V30 14 1 11 15
M  V30 15 1 12 16
M  V30 16 1 15 17
M  V30 17 1 16 18
M  V30 18 1 17 19
M  V30 19 2 17 20
M  V30 20 2 18 21
M  V30 21 1 18 22
M  V30 22 1 19 23
M  V30 23 1 20 24
M  V30 24 1 23 25
M  V30 25 1 24 26
M  V30 26 1 25 27
M  V30 27 1 25 28
M  V30 28 1 26 29
M  V30 29 2 26 30
M  V30 30 1 27 31
M  V30 31 1 28 32
M  V30 32 1 29 33
M  V30 33 1 30 34
M  V30 34 1 31 35
M  V30 35 1 34 36
M  V30 36 1 35 37
M  V30 37 1 37 38
M  V30 38 1 37 39
M  V30 39 1 38 40
M  V30 40 1 39 41
M  V30 41 1 40 42
M  V30 42 1 7 8
M  V30 43 1 13 16
M  V30 44 2 23 24
M  V30 45 1 32 35
M  V30 46 2 33 34
M  V30 47 1 41 42
M  V30 END BOND
M  V30 END CTAB
M  END
>  <Molecule Name>


>  <status>
-

>  <cas>
570406-98-3

>  <name>
AVATROMBOPAG

>  <ID>
1878

>  <Smiles>
[O-]C(C(CC1)CCN1c(ncc(C(Nc1nc(-c2cc(Cl)cs2)c(N(CC2)CCN2C2CCCCC2)s1)=O)c1)c1Cl)=O

$$$$

Actelion Java MolfileCreator 2.0

  0  0  0  0  0  0              0 V3000
M  V30 BEGIN CTAB
M  V30 COUNTS 32 36 0 0 0
M  V30 BEGIN ATOM
M  V30 1 F 4.3301 0.9999 0.0 0
M  V30 2 C 4.3301 0.0 0.0 0
M  V30 3 C 3.4641 -0.5 0.0 0
M  V30 4 C 5.1961 -0.5 0.0 0
M  V30 5 C 3.4641 -1.5 0.0 0
M  V30 6 C 2.598 0.0 0.0 0
M  V30 7 C 5.1961 -1.5 0.0 0
M  V30 8 F 2.598 -1.9999 0.0 0
M  V30 9 C 4.3301 -2.0 0.0 0
M  V30 10 N 1.732 -0.5 0.0 0
M  V30 11 F 6.0621 -2.0 0.0 0
M  V30 12 C 0.866 0.0 0.0 0
M  V30 13 O 0.866 1.0 0.0 0
M  V30 14 C 0.0 -0.5 0.0 0
M  V30 15 C 0.0 -1.4999 0.0 0
M  V30 16 C -0.866 0.0 0.0 0
M  V30 17 O 0.866 -1.9999 0.0 0
M  V30 18 C -0.866 -1.9999 0.0 0
M  V30 19 N -1.732 -0.4999 0.0 0
M  V30 20 O -0.866 -2.9999 0.0 0
M  V30 21 C -1.732 -1.4999 0.0 0
M  V30 22 C -2.598 0.0 0.0 0
M  V30 23 C -2.598 -1.9999 0.0 0
M  V30 24 C -3.4641 -0.4999 0.0 0 CFG=1
M  V30 25 O -2.598 -2.9999 0.0 0
M  V30 26 N -3.4641 -1.4999 0.0 0
M  V30 27 O -4.3301 0.0 0.0 0
M  V30 28 C -4.6726 -2.1319 0.0 0 CFG=1
M  V30 29 C -5.4816 -0.7306 0.0 0 CFG=2
M  V30 30 C -4.5681 -1.1374 0.0 0
M  V30 31 C -5.6507 -2.3398 0.0 0
M  V30 32 C -6.1507 -1.4738 0.0 0
M  V30 END ATOM
M  V30 BEGIN BOND
M  V30 1 1 1 2
M  V30 2 2 2 3
M  V30 3 1 2 4
M  V30 4 1 3 5
M  V30 5 1 3 6
M  V30 6 2 4 7
M  V30 7 1 5 8
M  V30 8 2 5 9
M  V30 9 1 6 10
M  V30 10 1 7 11
M  V30 11 1 10 12
M  V30 12 2 12 13
M  V30 13 1 12 14
M  V30 14 1 14 15
M  V30 15 2 14 16
M  V30 16 2 15 17
M  V30 17 1 15 18
M  V30 18 1 16 19
M  V30 19 1 18 20
M  V30 20 2 18 21
M  V30 21 1 19 22
M  V30 22 1 21 23
M  V30 23 1 24 22
M  V30 24 2 23 25
M  V30 25 1 23 26
M  V30 26 1 24 27 CFG=1
M  V30 27 1 28 26 CFG=3
M  V30 28 1 29 27 CFG=3
M  V30 29 1 28 30
M  V30 30 1 28 31
M  V30 31 1 29 32
M  V30 32 1 7 9
M  V30 33 1 19 21
M  V30 34 1 24 26
M  V30 35 1 29 30
M  V30 36 1 31 32
M  V30 END BOND
M  V30 BEGIN COLLECTION
M  V30 MDLV30/STERAC1 ATOMS=(3 24 28 29)
M  V30 END COLLECTION
M  V30 END CTAB
M  END
>  <Molecule Name>


>  <status>
-

>  <cas>
1611493-60-7

>  <name>
BICTEGRAVIR

>  <ID>
1879

>  <Smiles>
OC1=C(C(N2[C@H](C3)O[C@@H]4C[C@H]2CC4)=O)N3C=C(C(NCc(c(F)cc(F)c2)c2F)=O)C1=O

$$$$

Actelion Java MolfileCreator 2.0

  0  0  0  0  0  0              0 V3000
M  V30 BEGIN CTAB
M  V30 COUNTS 35 39 0 0 0
M  V30 BEGIN ATOM
M  V30 1 O 4.6032 3.7775 0.0 0
M  V30 2 C 5.191 4.5865 0.0 0
M  V30 3 N 6.1855 4.482 0.0 0
M  V30 4 C 4.7843 5.5 0.0 0
M  V30 5 C 6.6855 3.6159 0.0 0 CFG=2
M  V30 6 C 6.8546 5.2251 0.0 0
M  V30 7 C 4.3775 6.4136 0.0 0
M  V30 8 C 6.2788 2.7024 0.0 0
M  V30 9 C 7.6637 3.8238 0.0 0
M  V30 10 C 7.7682 4.8184 0.0 0
M  V30 11 C 3.9708 7.3271 0.0 0
M  V30 12 N 5.3006 2.4945 0.0 0
M  V30 13 N 6.7788 1.8364 0.0 0
M  V30 14 C 5.1961 1.5 0.0 0
M  V30 15 C 6.1096 1.0932 0.0 0
M  V30 16 C 7.7569 1.6284 0.0 0
M  V30 17 C 4.3301 1.0 0.0 0
M  V30 18 C 6.4187 0.1422 0.0 0
M  V30 19 C 8.0659 0.6774 0.0 0
M  V30 20 C 3.4641 1.5 0.0 0
M  V30 21 C 4.3301 0.0 0.0 0
M  V30 22 N 7.3968 -0.0657 0.0 0
M  V30 23 N 5.7495 -0.6009 0.0 0
M  V30 24 C 2.598 0.9999 0.0 0
M  V30 25 C 3.4641 -0.4999 0.0 0
M  V30 26 C 2.598 0.0 0.0 0
M  V30 27 C 1.732 -0.5 0.0 0
M  V30 28 O 1.732 -1.5 0.0 0
M  V30 29 N 0.866 0.0 0.0 0
M  V30 30 C 0.0 -0.5 0.0 0
M  V30 31 N -0.866 0.0 0.0 0
M  V30 32 C 0.0 -1.4999 0.0 0
M  V30 33 C -1.732 -0.4999 0.0 0
M  V30 34 C -0.866 -1.9999 0.0 0
M  V30 35 C -1.732 -1.4999 0.0 0
M  V30 END ATOM
M  V30 BEGIN BOND
M  V30 1 2 1 2
M  V30 2 1 2 3
M  V30 3 1 2 4
M  V30 4 1 5 3
M  V30 5 1 3 6
M  V30 6 3 4 7
M  V30 7 1 5 8 CFG=1
M  V30 8 1 5 9
M  V30 9 1 6 10
M  V30 10 1 7 11
M  V30 11 2 8 12
M  V30 12 1 8 13
M  V30 13 1 12 14
M  V30 14 1 13 15
M  V30 15 1 13 16
M  V30 16 1 14 17
M  V30 17 1 15 18
M  V30 18 2 16 19
M  V30 19 2 17 20
M  V30 20 1 17 21
M  V30 21 2 18 22
M  V30 22 1 18 23
M  V30 23 1 20 24
M  V30 24 2 21 25
M  V30 25 2 24 26
M  V30 26 1 26 27
M  V30 27 2 27 28
M  V30 28 1 27 29
M  V30 29 1 29 30
M  V30 30 2 30 31
M  V30 31 1 30 32
M  V30 32 1 31 33
M  V30 33 2 32 34
M  V30 34 2 33 35
M  V30 35 1 9 10
M  V30 36 2 14 15
M  V30 37 1 19 22
M  V30 38 1 25 26
M  V30 39 1 34 35
M  V30 END BOND
M  V30 BEGIN COLLECTION
M  V30 MDLV30/STERAC1 ATOMS=(1 5)
M  V30 END COLLECTION
M  V30 END CTAB
M  END
>  <Molecule Name>


>  <status>
-

>  <cas>
1420477-60-6

>  <name>
ACALABRUTINIB

>  <ID>
1880

>  <Smiles>
CC#CC(N(CCC1)C1c1nc(-c(cc2)ccc2C(Nc2ncccc2)=O)c2n1ccnc2N)=O

$$$$

Actelion Java MolfileCreator 2.0

  0  0  0  0  0  0              0 V3000
M  V30 BEGIN CTAB
M  V30 COUNTS 37 41 0 0 0
M  V30 BEGIN ATOM
M  V30 1 F 3.8123 -5.9028 0.0 0
M  V30 2 C 4.8169 -4.7871 0.0 0
M  V30 3 C 6.2853 -5.0993 0.0 0
M  V30 4 C 4.3529 -3.3593 0.0 0
M  V30 5 N 6.7154 -6.5151 0.0 0
M  V30 6 C 7.2899 -3.9836 0.0 0
M  V30 7 C 5.3575 -2.2437 0.0 0
M  V30 8 C 5.7447 -7.6428 0.0 0
M  V30 9 C 6.826 -2.5558 0.0 0
M  V30 10 N 5.2006 -0.7506 0.0 0
M  V30 11 O 4.2762 -7.3306 0.0 0
M  V30 12 C 6.2086 -9.0706 0.0 0
M  V30 13 C 7.5766 -1.2556 0.0 0
M  V30 14 C 6.5721 -0.14 0.0 0
M  V30 15 C 3.9004 0.0 0.0 0
M  V30 16 C 7.4677 -8.2529 0.0 0
M  V30 17 C 5.8965 -10.539 0.0 0
M  V30 18 C 7.3243 -10.0751 0.0 0
M  V30 19 C 6.8842 1.3284 0.0 0
M  V30 20 C 2.6003 -0.7506 0.0 0 CFG=2
M  V30 21 C 7.4061 -6.7597 0.0 0
M  V30 22 C 8.8054 -8.9345 0.0 0
M  V30 23 C 8.312 1.7923 0.0 0
M  V30 24 C 6.4203 2.7562 0.0 0
M  V30 25 C 5.4157 1.6405 0.0 0
M  V30 26 O 2.6003 -2.2519 0.0 0
M  V30 27 C 1.3001 0.0 0.0 0
M  V30 28 C 8.6482 -5.936 0.0 0
M  V30 29 C 10.0644 -8.1168 0.0 0
M  V30 30 O 8.6241 3.2608 0.0 0
M  V30 31 O 0.0 -0.7506 0.0 0
M  V30 32 O 8.8831 -4.4532 0.0 0
M  V30 33 C 9.9859 -6.6176 0.0 0
M  V30 34 C 10.3659 -4.2184 0.0 0
M  V30 35 O 11.0474 -5.556 0.0 0
M  V30 36 F 10.2873 -2.7192 0.0 0
M  V30 37 F 11.6249 -3.4007 0.0 0
M  V30 END ATOM
M  V30 BEGIN BOND
M  V30 1 1 1 2
M  V30 2 2 2 3
M  V30 3 1 2 4
M  V30 4 1 3 5
M  V30 5 1 3 6
M  V30 6 2 4 7
M  V30 7 1 5 8
M  V30 8 2 6 9
M  V30 9 1 7 10
M  V30 10 2 8 11
M  V30 11 1 8 12
M  V30 12 1 9 13
M  V30 13 1 10 14
M  V30 14 1 10 15
M  V30 15 1 12 16
M  V30 16 1 12 17
M  V30 17 1 12 18
M  V30 18 1 14 19
M  V30 19 1 20 15
M  V30 20 2 16 21
M  V30 21 1 16 22
M  V30 22 1 19 23
M  V30 23 1 19 24
M  V30 24 1 19 25
M  V30 25 1 20 26 CFG=3
M  V30 26 1 20 27
M  V30 27 1 21 28
M  V30 28 2 22 29
M  V30 29 1 23 30
M  V30 30 1 27 31
M  V30 31 1 28 32
M  V30 32 2 28 33
M  V30 33 1 32 34
M  V30 34 1 33 35
M  V30 35 1 34 36
M  V30 36 1 34 37
M  V30 37 1 7 9
M  V30 38 2 13 14
M  V30 39 1 17 18
M  V30 40 1 29 33
M  V30 41 1 34 35
M  V30 END BOND
M  V30 BEGIN COLLECTION
M  V30 MDLV30/STERAC1 ATOMS=(1 20)
M  V30 END COLLECTION
M  V30 END CTAB
M  END
>  <Molecule Name>


>  <status>
-

>  <cas>
1152311-62-0

>  <name>
TEZACAFTOR

>  <ID>
1881

>  <Smiles>
CC(C)(CO)c(n(CC(CO)O)c1c2)cc1cc(NC(C1(CC1)c(cc1)cc(O3)c1OC3(F)F)=O)c2F

$$$$

Actelion Java MolfileCreator 2.0

  0  0  0  0  0  0              0 V3000
M  V30 BEGIN CTAB
M  V30 COUNTS 47 50 0 0 0
M  V30 BEGIN ATOM
M  V30 1 P 14.2894 -7.5 0.0 0
M  V30 2 O 13.5394 -8.799 0.0 0
M  V30 3 O 12.9903 -6.75 0.0 0
M  V30 4 O 15.5884 -8.25 0.0 0 CHG=-1
M  V30 5 O 15.0394 -6.2009 0.0 0 CHG=-1
M  V30 6 C 12.9903 -5.25 0.0 0
M  V30 7 N 11.6913 -4.5 0.0 0 CHG=1
M  V30 8 C 11.6913 -3.0 0.0 0
M  V30 9 C 10.3923 -5.25 0.0 0
M  V30 10 C 11.6913 -6.0 0.0 0
M  V30 11 C 10.3923 -2.25 0.0 0
M  V30 12 C 9.0932 -4.5 0.0 0
M  V30 13 N 9.0932 -3.0 0.0 0
M  V30 14 C 7.7942 -2.25 0.0 0
M  V30 15 N 7.7942 -0.75 0.0 0
M  V30 16 C 6.4951 -3.0 0.0 0
M  V30 17 C 6.4951 0.0 0.0 0
M  V30 18 C 5.1961 -2.25 0.0 0
M  V30 19 C 5.1961 -0.75 0.0 0
M  V30 20 C 3.8971 -3.0 0.0 0
M  V30 21 N 3.8971 0.0 0.0 0
M  V30 22 C 3.8971 -4.5 0.0 0
M  V30 23 C 2.598 -2.25 0.0 0
M  V30 24 C 3.8971 1.5 0.0 0
M  V30 25 C 2.598 -0.75 0.0 0
M  V30 26 C 2.598 -5.25 0.0 0
M  V30 27 C 5.1961 -5.25 0.0 0
M  V30 28 C 1.299 -3.0 0.0 0
M  V30 29 O 5.1961 2.25 0.0 0
M  V30 30 C 2.598 2.25 0.0 0
M  V30 31 C 1.299 -4.5 0.0 0
M  V30 32 C 2.598 3.75 0.0 0
M  V30 33 C 1.8481 0.9509 0.0 0
M  V30 34 C 1.0981 2.25 0.0 0
M  V30 35 C 1.299 4.5 0.0 0
M  V30 36 C 3.8971 4.5 0.0 0
M  V30 37 C 1.299 6.0 0.0 0
M  V30 38 C 3.8971 6.0 0.0 0
M  V30 39 C 2.598 6.75 0.0 0
M  V30 40 C 0.0 6.75 0.0 0
M  V30 41 C 5.1961 6.75 0.0 0
M  V30 42 F 0.75 8.049 0.0 0
M  V30 43 F -1.299 7.5 0.0 0
M  V30 44 F -0.75 5.4509 0.0 0
M  V30 45 F 5.9461 5.4509 0.0 0
M  V30 46 F 6.4951 7.5 0.0 0
M  V30 47 F 4.4461 8.049 0.0 0
M  V30 END ATOM
M  V30 BEGIN BOND
M  V30 1 2 1 2
M  V30 2 1 1 3
M  V30 3 1 1 4
M  V30 4 1 1 5
M  V30 5 1 3 6
M  V30 6 1 6 7
M  V30 7 1 7 8
M  V30 8 1 7 9
M  V30 9 1 7 10
M  V30 10 1 8 11
M  V30 11 1 9 12
M  V30 12 1 11 13
M  V30 13 1 13 14
M  V30 14 2 14 15
M  V30 15 1 14 16
M  V30 16 1 15 17
M  V30 17 2 16 18
M  V30 18 2 17 19
M  V30 19 1 18 20
M  V30 20 1 19 21
M  V30 21 2 20 22
M  V30 22 1 20 23
M  V30 23 1 21 24
M  V30 24 1 21 25
M  V30 25 1 22 26
M  V30 26 1 22 27
M  V30 27 2 23 28
M  V30 28 2 24 29
M  V30 29 1 24 30
M  V30 30 2 26 31
M  V30 31 1 30 32
M  V30 32 1 30 33
M  V30 33 1 30 34
M  V30 34 2 32 35
M  V30 35 1 32 36
M  V30 36 1 35 37
M  V30 37 2 36 38
M  V30 38 2 37 39
M  V30 39 1 37 40
M  V30 40 1 38 41
M  V30 41 1 40 42
M  V30 42 1 40 43
M  V30 43 1 40 44
M  V30 44 1 41 45
M  V30 45 1 41 46
M  V30 46 1 41 47
M  V30 47 1 12 13
M  V30 48 1 18 19
M  V30 49 1 28 31
M  V30 50 1 38 39
M  V30 END BOND
M  V30 END CTAB
M  END
>  <Molecule Name>


>  <status>
-

>  <cas>
1703748-89-3

>  <name>
FOSNETUPITANT

>  <ID>
1882

>  <Smiles>
CC(C)(C(N(C)c(c(-c1c(C)cccc1)c1)cnc1N1CC[N+](C)(COP([O-])([O-])=O)CC1)=O)c1cc(C(F)(F)F)cc(C(F)(F)F)c1

$$$$

Actelion Java MolfileCreator 2.0

  0  0  0  0  0  0              0 V3000
M  V30 BEGIN CTAB
M  V30 COUNTS 33 36 0 0 0
M  V30 BEGIN ATOM
M  V30 1 S 6.3176 0.1151 0.0 0
M  V30 2 C 6.1096 1.0932 0.0 0
M  V30 3 N 6.7788 1.8364 0.0 0
M  V30 4 N 5.1961 1.5 0.0 0
M  V30 5 C 7.7733 1.7318 0.0 0
M  V30 6 C 6.2788 2.7024 0.0 0
M  V30 7 C 4.3301 1.0 0.0 0
M  V30 8 C 5.3006 2.4945 0.0 0
M  V30 9 C 8.18 0.8183 0.0 0
M  V30 10 C 8.3611 2.5408 0.0 0
M  V30 11 O 6.6855 3.6159 0.0 0
M  V30 12 C 3.4641 1.5 0.0 0
M  V30 13 C 4.3301 0.0 0.0 0
M  V30 14 C 5.2483 3.4931 0.0 0
M  V30 15 C 4.302 2.4421 0.0 0
M  V30 16 N 9.1746 0.7138 0.0 0
M  V30 17 C 9.3556 2.4363 0.0 0
M  V30 18 C 2.598 0.9999 0.0 0
M  V30 19 C 3.4641 -0.4999 0.0 0
M  V30 20 C 4.2497 3.4408 0.0 0
M  V30 21 C 9.7623 1.5228 0.0 0
M  V30 22 C 9.9434 3.2453 0.0 0
M  V30 23 F 1.732 1.4999 0.0 0
M  V30 24 C 2.598 0.0 0.0 0
M  V30 25 C 10.7569 1.4182 0.0 0
M  V30 26 F 9.1344 3.8331 0.0 0
M  V30 27 F 10.5312 4.0544 0.0 0
M  V30 28 F 10.7524 2.6575 0.0 0
M  V30 29 C 1.732 -0.5 0.0 0
M  V30 30 N 11.7514 1.3137 0.0 0
M  V30 31 O 1.732 -1.5 0.0 0
M  V30 32 N 0.866 0.0 0.0 0
M  V30 33 C 0.0 -0.5 0.0 0
M  V30 END ATOM
M  V30 BEGIN BOND
M  V30 1 2 1 2
M  V30 2 1 2 3
M  V30 3 1 2 4
M  V30 4 1 3 5
M  V30 5 1 3 6
M  V30 6 1 4 7
M  V30 7 1 4 8
M  V30 8 2 5 9
M  V30 9 1 5 10
M  V30 10 2 6 11
M  V30 11 2 7 12
M  V30 12 1 7 13
M  V30 13 1 8 14
M  V30 14 1 8 15
M  V30 15 1 9 16
M  V30 16 2 10 17
M  V30 17 1 12 18
M  V30 18 2 13 19
M  V30 19 1 14 20
M  V30 20 2 16 21
M  V30 21 1 17 22
M  V30 22 1 18 23
M  V30 23 2 18 24
M  V30 24 1 21 25
M  V30 25 1 22 26
M  V30 26 1 22 27
M  V30 27 1 22 28
M  V30 28 1 24 29
M  V30 29 3 25 30
M  V30 30 2 29 31
M  V30 31 1 29 32
M  V30 32 1 32 33
M  V30 33 1 6 8
M  V30 34 1 15 20
M  V30 35 1 17 21
M  V30 36 1 19 24
M  V30 END BOND
M  V30 END CTAB
M  END
>  <Molecule Name>


>  <status>
-

>  <cas>
956104-40-8

>  <name>
APALUTAMIDE

>  <ID>
1883

>  <Smiles>
CNC(c(ccc(N(C1(CCC1)C(N1c(cc2C(F)(F)F)cnc2C#N)=O)C1=S)c1)c1F)=O

$$$$

Actelion Java MolfileCreator 2.0

  0  0  0  0  0  0              0 V3000
M  V30 BEGIN CTAB
M  V30 COUNTS 32 35 0 0 0
M  V30 BEGIN ATOM
M  V30 1 S 5.5372 -5.4954 0.0 0
M  V30 2 C 6.6519 -4.4917 0.0 0
M  V30 3 N 8.1192 -4.8036 0.0 0
M  V30 4 N 6.4951 -3.0 0.0 0
M  V30 5 C 8.7293 -6.1739 0.0 0
M  V30 6 C 8.8692 -3.5046 0.0 0
M  V30 7 C 5.1961 -2.25 0.0 0
M  V30 8 C 7.8655 -2.3898 0.0 0
M  V30 9 C 7.8476 -7.3874 0.0 0
M  V30 10 C 10.221 -6.3307 0.0 0
M  V30 11 O 10.3609 -3.3478 0.0 0
M  V30 12 C 5.1961 -0.75 0.0 0
M  V30 13 C 3.8971 -2.9999 0.0 0
M  V30 14 C 9.1235 -1.5729 0.0 0
M  V30 15 C 7.0485 -1.1318 0.0 0
M  V30 16 N 8.4577 -8.7578 0.0 0
M  V30 17 C 10.8311 -7.701 0.0 0
M  V30 18 C 3.8971 0.0 0.0 0
M  V30 19 C 2.598 -2.25 0.0 0
M  V30 20 C 8.3065 -0.3149 0.0 0
M  V30 21 C 9.9495 -8.9146 0.0 0
M  V30 22 C 12.3229 -7.8578 0.0 0
M  V30 23 F 3.8971 1.5 0.0 0
M  V30 24 C 2.598 -0.75 0.0 0
M  V30 25 C 10.5596 -10.2849 0.0 0
M  V30 26 F 12.4797 -6.366 0.0 0
M  V30 27 F 13.8147 -8.0146 0.0 0
M  V30 28 F 12.1661 -9.3496 0.0 0
M  V30 29 C 1.299 0.0 0.0 0
M  V30 30 N 11.1697 -11.6552 0.0 0
M  V30 31 O 1.299 1.5 0.0 0
M  V30 32 N 0.0 -0.75 0.0 0
M  V30 END ATOM
M  V30 BEGIN BOND
M  V30 1 2 1 2
M  V30 2 1 2 3
M  V30 3 1 2 4
M  V30 4 1 3 5
M  V30 5 1 3 6
M  V30 6 1 4 7
M  V30 7 1 4 8
M  V30 8 2 5 9
M  V30 9 1 5 10
M  V30 10 2 6 11
M  V30 11 2 7 12
M  V30 12 1 7 13
M  V30 13 1 8 14
M  V30 14 1 8 15
M  V30 15 1 9 16
M  V30 16 2 10 17
M  V30 17 1 12 18
M  V30 18 2 13 19
M  V30 19 1 14 20
M  V30 20 2 16 21
M  V30 21 1 17 22
M  V30 22 1 18 23
M  V30 23 2 18 24
M  V30 24 1 21 25
M  V30 25 1 22 26
M  V30 26 1 22 27
M  V30 27 1 22 28
M  V30 28 1 24 29
M  V30 29 3 25 30
M  V30 30 2 29 31
M  V30 31 1 29 32
M  V30 32 1 6 8
M  V30 33 1 15 20
M  V30 34 1 17 21
M  V30 35 1 19 24
M  V30 END BOND
M  V30 END CTAB
M  END
>  <Molecule Name>


>  <status>
-

>  <cas>
1332391-11-3

>  <name>
M APALUTAMIDE

>  <ID>
1884

>  <Smiles>
NC(c(ccc(N(C1(CCC1)C(N1c(cc2C(F)(F)F)cnc2C#N)=O)C1=S)c1)c1F)=O

$$$$

Actelion Java MolfileCreator 2.0

  0  0  0  0  0  0              0 V3000
M  V30 BEGIN CTAB
M  V30 COUNTS 17 18 0 0 0
M  V30 BEGIN ATOM
M  V30 1 O 6.1472 -0.1909 0.0 0
M  V30 2 C 5.1961 -0.5 0.0 0
M  V30 3 C 6.7349 -1.0 0.0 0
M  V30 4 C 5.1961 -1.5 0.0 0
M  V30 5 C 4.3301 0.0 0.0 0
M  V30 6 O 6.1472 -1.809 0.0 0
M  V30 7 C 4.3301 -2.0 0.0 0
M  V30 8 C 3.4641 -0.5 0.0 0
M  V30 9 C 3.4641 -1.4999 0.0 0
M  V30 10 C 2.598 0.0 0.0 0
M  V30 11 C 1.732 -0.5 0.0 0
M  V30 12 C 0.866 0.0 0.0 0 CFG=1
M  V30 13 O 0.866 1.0 0.0 0
M  V30 14 C 0.0 -0.5 0.0 0
M  V30 15 C 0.4999 -1.366 0.0 0
M  V30 16 C -0.866 -0.9999 0.0 0
M  V30 17 C -0.4999 0.366 0.0 0
M  V30 END ATOM
M  V30 BEGIN BOND
M  V30 1 1 1 2
M  V30 2 1 1 3
M  V30 3 2 2 4
M  V30 4 1 2 5
M  V30 5 1 3 6
M  V30 6 1 4 7
M  V30 7 2 5 8
M  V30 8 2 7 9
M  V30 9 1 8 10
M  V30 10 2 10 11
M  V30 11 1 12 11
M  V30 12 1 12 13 CFG=3
M  V30 13 1 12 14
M  V30 14 1 14 15
M  V30 15 1 14 16
M  V30 16 1 14 17
M  V30 17 1 4 6
M  V30 18 1 8 9
M  V30 END BOND
M  V30 BEGIN COLLECTION
M  V30 MDLV30/STERAC1 ATOMS=(1 12)
M  V30 END COLLECTION
M  V30 END CTAB
M  END
>  <Molecule Name>


>  <status>
-

>  <cas>
137767-55-6

>  <name>
STIRIPENTOL

>  <ID>
1885

>  <Smiles>
CC(C)(C)C(/C=C/c(cc1)cc2c1OCO2)O

$$$$

Actelion Java MolfileCreator 2.0

  0  0  0  0  0  0              0 V3000
M  V30 BEGIN CTAB
M  V30 COUNTS 17 18 0 0 0
M  V30 BEGIN ATOM
M  V30 1 O 6.1472 -0.1909 0.0 0
M  V30 2 C 5.1961 -0.5 0.0 0
M  V30 3 C 6.7349 -1.0 0.0 0
M  V30 4 C 5.1961 -1.5 0.0 0
M  V30 5 C 4.3301 0.0 0.0 0
M  V30 6 O 6.1472 -1.809 0.0 0
M  V30 7 C 4.3301 -2.0 0.0 0
M  V30 8 C 3.4641 -0.5 0.0 0
M  V30 9 C 3.4641 -1.4999 0.0 0
M  V30 10 C 2.598 0.0 0.0 0
M  V30 11 C 1.732 -0.5 0.0 0
M  V30 12 C 0.866 0.0 0.0 0 CFG=1
M  V30 13 O 0.866 1.0 0.0 0
M  V30 14 C 0.0 -0.5 0.0 0
M  V30 15 C 0.4999 -1.366 0.0 0
M  V30 16 C -0.866 -0.9999 0.0 0
M  V30 17 C -0.4999 0.366 0.0 0
M  V30 END ATOM
M  V30 BEGIN BOND
M  V30 1 1 1 2
M  V30 2 1 1 3
M  V30 3 2 2 4
M  V30 4 1 2 5
M  V30 5 1 3 6
M  V30 6 1 4 7
M  V30 7 2 5 8
M  V30 8 2 7 9
M  V30 9 1 8 10
M  V30 10 2 10 11
M  V30 11 1 12 11
M  V30 12 1 12 13 CFG=3
M  V30 13 1 12 14
M  V30 14 1 14 15
M  V30 15 1 14 16
M  V30 16 1 14 17
M  V30 17 1 4 6
M  V30 18 1 8 9
M  V30 END BOND
M  V30 BEGIN COLLECTION
M  V30 MDLV30/STERAC1 ATOMS=(1 12)
M  V30 END COLLECTION
M  V30 END CTAB
M  END
>  <Molecule Name>


>  <status>
-

>  <cas>
137767-55-6

>  <name>
STIRIPENTOL

>  <ID>
1886

>  <Smiles>
CC(C)(C)C(/C=C/c(cc1)cc2c1OCO2)O

$$$$

Actelion Java MolfileCreator 2.0

  0  0  0  0  0  0              0 V3000
M  V30 BEGIN CTAB
M  V30 COUNTS 8 8 0 0 0
M  V30 BEGIN ATOM
M  V30 1 N 2.598 2.2499 0.0 0
M  V30 2 C 1.299 1.5 0.0 0
M  V30 3 C 3.8971 1.4999 0.0 0
M  V30 4 C 1.299 0.0 0.0 0
M  V30 5 C 3.8971 0.0 0.0 0
M  V30 6 N 0.0 -0.75 0.0 0
M  V30 7 C 2.598 -0.75 0.0 0
M  V30 8 N 2.598 -2.25 0.0 0
M  V30 END ATOM
M  V30 BEGIN BOND
M  V30 1 2 1 2
M  V30 2 1 1 3
M  V30 3 1 2 4
M  V30 4 2 3 5
M  V30 5 1 4 6
M  V30 6 2 4 7
M  V30 7 1 7 8
M  V30 8 1 5 7
M  V30 END BOND
M  V30 END CTAB
M  END
>  <Molecule Name>


>  <status>
-

>  <cas>
54-96-6

>  <name>
AMIFAMPRIDINE

>  <ID>
1887

>  <Smiles>
Nc(ccnc1)c1N

$$$$

Actelion Java MolfileCreator 2.0

  0  0  0  0  0  0              0 V3000
M  V30 BEGIN CTAB
M  V30 COUNTS 11 11 0 0 0
M  V30 BEGIN ATOM
M  V30 1 O 4.3301 0.0 0.0 0
M  V30 2 C 3.4641 -0.5 0.0 0 CFG=2
M  V30 3 C 2.598 0.0 0.0 0 CFG=2
M  V30 4 C 3.4641 -1.4999 0.0 0 CFG=2
M  V30 5 O 2.598 1.0 0.0 0
M  V30 6 C 1.732 -0.5 0.0 0 CFG=1
M  V30 7 O 4.3301 -1.9999 0.0 0
M  V30 8 C 2.598 -2.0 0.0 0
M  V30 9 N 1.732 -1.5 0.0 0
M  V30 10 C 0.866 0.0 0.0 0
M  V30 11 O 0.0 -0.5 0.0 0
M  V30 END ATOM
M  V30 BEGIN BOND
M  V30 1 1 2 1 CFG=1
M  V30 2 1 3 2
M  V30 3 1 4 2
M  V30 4 1 3 5 CFG=1
M  V30 5 1 6 3
M  V30 6 1 4 7 CFG=3
M  V30 7 1 4 8
M  V30 8 1 6 9
M  V30 9 1 6 10 CFG=1
M  V30 10 1 10 11
M  V30 11 1 8 9
M  V30 END BOND
M  V30 BEGIN COLLECTION
M  V30 MDLV30/STERAC1 ATOMS=(4 2 3 4 6)
M  V30 END COLLECTION
M  V30 END CTAB
M  END
>  <Molecule Name>


>  <status>
-

>  <cas>
108147-54-2

>  <name>
MIGALASTAT

>  <ID>
1888

>  <Smiles>
OC[C@@H]([C@H]([C@H]1O)O)NC[C@H]1O

$$$$

Actelion Java MolfileCreator 2.0

  0  0  0  0  0  0              0 V3000
M  V30 BEGIN CTAB
M  V30 COUNTS 27 31 0 0 0
M  V30 BEGIN ATOM
M  V30 1 F 4.6961 2.366 0.0 0
M  V30 2 C 5.1961 1.5 0.0 0
M  V30 3 F 6.0621 2.0 0.0 0
M  V30 4 F 5.6961 0.6339 0.0 0
M  V30 5 C 4.3301 1.0 0.0 0
M  V30 6 C 3.4641 1.5 0.0 0
M  V30 7 C 4.3301 0.0 0.0 0
M  V30 8 C 2.598 0.9999 0.0 0
M  V30 9 C 3.4641 -0.4999 0.0 0
M  V30 10 C 2.598 0.0 0.0 0
M  V30 11 C 1.732 -0.5 0.0 0
M  V30 12 O 1.732 -1.5 0.0 0
M  V30 13 N 0.866 0.0 0.0 0
M  V30 14 N 0.0 -0.5 0.0 0
M  V30 15 C -0.1045 -1.4945 0.0 0
M  V30 16 C -0.9135 -0.0932 0.0 0
M  V30 17 O 0.6386 -2.1636 0.0 0
M  V30 18 C -1.0826 -1.7024 0.0 0 CFG=1
M  V30 19 O -1.1214 0.8848 0.0 0
M  V30 20 C -1.5826 -0.8364 0.0 0 CFG=2
M  V30 21 C -2.0826 -2.8571 0.0 0 CFG=2
M  V30 22 C -3.0826 -1.125 0.0 0 CFG=1
M  V30 23 C -1.7002 -1.8893 0.0 0
M  V30 24 C -3.0826 -2.8571 0.0 0 CFG=1
M  V30 25 C -2.0532 -1.2777 0.0 0
M  V30 26 C -3.5826 -1.9911 0.0 0 CFG=2
M  V30 27 C -4.0826 -2.8571 0.0 0
M  V30 END ATOM
M  V30 BEGIN BOND
M  V30 1 1 1 2
M  V30 2 1 2 3
M  V30 3 1 2 4
M  V30 4 1 2 5
M  V30 5 2 5 6
M  V30 6 1 5 7
M  V30 7 1 6 8
M  V30 8 2 7 9
M  V30 9 2 8 10
M  V30 10 1 10 11
M  V30 11 2 11 12
M  V30 12 1 11 13
M  V30 13 1 13 14
M  V30 14 1 14 15
M  V30 15 1 14 16
M  V30 16 2 15 17
M  V30 17 1 18 15 CFG=3
M  V30 18 2 16 19
M  V30 19 1 20 16 CFG=3
M  V30 20 1 21 18
M  V30 21 1 22 20
M  V30 22 1 21 23 CFG=3
M  V30 23 1 24 21
M  V30 24 1 22 25 CFG=3
M  V30 25 1 26 22
M  V30 26 1 24 27 CFG=3
M  V30 27 1 9 10
M  V30 28 1 18 20
M  V30 29 2 23 25
M  V30 30 1 24 26
M  V30 31 1 26 27 CFG=3
M  V30 END BOND
M  V30 BEGIN COLLECTION
M  V30 MDLV30/STEABS ATOMS=(6 18 20 21 22 24 26)
M  V30 END COLLECTION
M  V30 END CTAB
M  END
>  <Molecule Name>


>  <status>
-

>  <cas>
869572-92-9

>  <name>
TECOVIRIMAT

>  <ID>
1889

>  <Smiles>
O=C(c1ccc(C(F)(F)F)cc1)NN(C([C@H]1[C@H]([C@@H]2[C@H]3C2)C=C[C@H]3[C@@H]11)=O)C1=O

$$$$

Actelion Java MolfileCreator 2.0

  0  0  0  0  0  0              0 V3000
M  V30 BEGIN CTAB
M  V30 COUNTS 21 23 0 0 0
M  V30 BEGIN ATOM
M  V30 1 Cl 0.866 -1.9999 0.0 0
M  V30 2 C 1.732 -1.4999 0.0 0
M  V30 3 C 2.598 -1.9999 0.0 0
M  V30 4 C 1.732 -0.5 0.0 0
M  V30 5 Cl 2.598 -3.0 0.0 0
M  V30 6 C 3.4641 -1.4999 0.0 0
M  V30 7 O 0.866 0.0 0.0 0
M  V30 8 C 2.598 0.0 0.0 0
M  V30 9 C 3.4641 -0.5 0.0 0
M  V30 10 C 0.0 -0.5 0.0 0
M  V30 11 C -0.866 0.0 0.0 0
M  V30 12 C 0.0 -1.4999 0.0 0
M  V30 13 Cl -0.866 1.0 0.0 0
M  V30 14 C -1.732 -0.4999 0.0 0
M  V30 15 C -0.866 -1.9999 0.0 0
M  V30 16 C -1.732 -1.4999 0.0 0
M  V30 17 N -1.0739 -2.9781 0.0 0
M  V30 18 N -2.4751 -2.1691 0.0 0
M  V30 19 C -2.0684 -3.0826 0.0 0
M  V30 20 S -2.5684 -3.9487 0.0 0
M  V30 21 C -2.0684 -4.8147 0.0 0
M  V30 END ATOM
M  V30 BEGIN BOND
M  V30 1 1 1 2
M  V30 2 2 2 3
M  V30 3 1 2 4
M  V30 4 1 3 5
M  V30 5 1 3 6
M  V30 6 1 4 7
M  V30 7 2 4 8
M  V30 8 2 6 9
M  V30 9 1 7 10
M  V30 10 2 10 11
M  V30 11 1 10 12
M  V30 12 1 11 13
M  V30 13 1 11 14
M  V30 14 2 12 15
M  V30 15 2 14 16
M  V30 16 1 15 17
M  V30 17 1 16 18
M  V30 18 1 17 19
M  V30 19 1 19 20
M  V30 20 1 20 21
M  V30 21 1 8 9
M  V30 22 1 15 16
M  V30 23 2 18 19
M  V30 END BOND
M  V30 END CTAB
M  END
>  <Molecule Name>


>  <status>
-

>  <cas>
68786-66-3

>  <name>
TRICLABENDAZOLE

>  <ID>
1890

>  <Smiles>
CSc([nH]c1c2)nc1cc(Cl)c2Oc1cccc(Cl)c1Cl

$$$$

Actelion Java MolfileCreator 2.0

  0  0  0  0  0  0              0 V3000
M  V30 BEGIN CTAB
M  V30 COUNTS 22 24 0 0 0
M  V30 BEGIN ATOM
M  V30 1 Cl 0.866 -1.9999 0.0 0
M  V30 2 C 1.732 -1.4999 0.0 0
M  V30 3 C 2.598 -1.9999 0.0 0
M  V30 4 C 1.732 -0.5 0.0 0
M  V30 5 Cl 2.598 -3.0 0.0 0
M  V30 6 C 3.4641 -1.4999 0.0 0
M  V30 7 O 0.866 0.0 0.0 0
M  V30 8 C 2.598 0.0 0.0 0
M  V30 9 C 3.4641 -0.5 0.0 0
M  V30 10 C 0.0 -0.5 0.0 0
M  V30 11 C -0.866 0.0 0.0 0
M  V30 12 C 0.0 -1.4999 0.0 0
M  V30 13 Cl -0.866 1.0 0.0 0
M  V30 14 C -1.732 -0.4999 0.0 0
M  V30 15 C -0.866 -1.9999 0.0 0
M  V30 16 C -1.732 -1.4999 0.0 0
M  V30 17 N -1.0739 -2.9781 0.0 0
M  V30 18 N -2.4751 -2.1691 0.0 0
M  V30 19 C -2.0684 -3.0826 0.0 0
M  V30 20 S -2.5684 -3.9487 0.0 0 CFG=1
M  V30 21 O -3.5684 -3.9487 0.0 0
M  V30 22 C -2.0684 -4.8147 0.0 0
M  V30 END ATOM
M  V30 BEGIN BOND
M  V30 1 1 1 2
M  V30 2 2 2 3
M  V30 3 1 2 4
M  V30 4 1 3 5
M  V30 5 1 3 6
M  V30 6 1 4 7
M  V30 7 2 4 8
M  V30 8 2 6 9
M  V30 9 1 7 10
M  V30 10 2 10 11
M  V30 11 1 10 12
M  V30 12 1 11 13
M  V30 13 1 11 14
M  V30 14 2 12 15
M  V30 15 2 14 16
M  V30 16 1 15 17
M  V30 17 1 16 18
M  V30 18 1 17 19
M  V30 19 1 20 19
M  V30 20 2 20 21
M  V30 21 1 20 22 CFG=3
M  V30 22 1 8 9
M  V30 23 1 15 16
M  V30 24 2 18 19
M  V30 END BOND
M  V30 BEGIN COLLECTION
M  V30 MDLV30/STERAC1 ATOMS=(1 20)
M  V30 END COLLECTION
M  V30 END CTAB
M  END
>  <Molecule Name>


>  <status>
-

>  <cas>
100648-13-3

>  <name>
M TRICLABENDAZOLE

>  <ID>
1891

>  <Smiles>
CS(c([nH]c1c2)nc1cc(Cl)c2Oc1cccc(Cl)c1Cl)=O

$$$$

Actelion Java MolfileCreator 2.0

  0  0  0  0  0  0              0 V3000
M  V30 BEGIN CTAB
M  V30 COUNTS 23 25 0 0 0
M  V30 BEGIN ATOM
M  V30 1 Cl 1.299 -2.9999 0.0 0
M  V30 2 C 2.598 -2.2499 0.0 0
M  V30 3 C 3.8971 -3.0 0.0 0
M  V30 4 C 2.598 -0.75 0.0 0
M  V30 5 Cl 3.8971 -4.5 0.0 0
M  V30 6 C 5.1961 -2.25 0.0 0
M  V30 7 O 1.299 0.0 0.0 0
M  V30 8 C 3.8971 0.0 0.0 0
M  V30 9 C 5.1961 -0.75 0.0 0
M  V30 10 C 0.0 -0.75 0.0 0
M  V30 11 C -1.299 0.0 0.0 0
M  V30 12 C 0.0 -2.2499 0.0 0
M  V30 13 Cl -1.299 1.5 0.0 0
M  V30 14 C -2.598 -0.7499 0.0 0
M  V30 15 C -1.299 -2.9999 0.0 0
M  V30 16 C -2.598 -2.2499 0.0 0
M  V30 17 N -1.6109 -4.4672 0.0 0
M  V30 18 N -3.7127 -3.2536 0.0 0
M  V30 19 C -3.1026 -4.624 0.0 0
M  V30 20 S -3.8526 -5.923 0.0 0
M  V30 21 O -5.1517 -5.173 0.0 0
M  V30 22 O -2.5536 -6.673 0.0 0
M  V30 23 C -4.6026 -7.222 0.0 0
M  V30 END ATOM
M  V30 BEGIN BOND
M  V30 1 1 1 2
M  V30 2 2 2 3
M  V30 3 1 2 4
M  V30 4 1 3 5
M  V30 5 1 3 6
M  V30 6 1 4 7
M  V30 7 2 4 8
M  V30 8 2 6 9
M  V30 9 1 7 10
M  V30 10 2 10 11
M  V30 11 1 10 12
M  V30 12 1 11 13
M  V30 13 1 11 14
M  V30 14 2 12 15
M  V30 15 2 14 16
M  V30 16 1 15 17
M  V30 17 1 16 18
M  V30 18 1 17 19
M  V30 19 1 19 20
M  V30 20 2 20 21
M  V30 21 2 20 22
M  V30 22 1 20 23
M  V30 23 1 8 9
M  V30 24 1 15 16
M  V30 25 2 18 19
M  V30 END BOND
M  V30 END CTAB
M  END
>  <Molecule Name>


>  <status>
-

>  <cas>
106791-37-1

>  <name>
M TRICLABENDAZOLE

>  <ID>
1892

>  <Smiles>
CS(c([nH]c1c2)nc1cc(Cl)c2Oc1cccc(Cl)c1Cl)(=O)=O

$$$$

Actelion Java MolfileCreator 2.0

  0  0  0  0  0  0              0 V3000
M  V30 BEGIN CTAB
M  V30 COUNTS 35 38 0 0 0
M  V30 BEGIN ATOM
M  V30 1 O 5.1961 -3.5 0.0 0
M  V30 2 C 4.3301 -3.0 0.0 0
M  V30 3 C 4.3301 -1.9999 0.0 0
M  V30 4 C 3.4641 -3.5 0.0 0
M  V30 5 C 5.1961 -1.4999 0.0 0
M  V30 6 C 3.4641 -1.5 0.0 0
M  V30 7 C 3.4641 -4.5 0.0 0
M  V30 8 C 2.598 -2.9999 0.0 0 CFG=2
M  V30 9 O 6.0621 -1.9999 0.0 0
M  V30 10 C 5.1961 -0.4999 0.0 0
M  V30 11 C 3.4641 -0.5 0.0 0
M  V30 12 C 2.598 -2.0 0.0 0
M  V30 13 O 4.3301 -5.0 0.0 0
M  V30 14 C 2.598 -5.0 0.0 0 CFG=1
M  V30 15 C 1.732 -3.5 0.0 0
M  V30 16 C 4.3301 0.0 0.0 0
M  V30 17 C 2.598 0.0 0.0 0
M  V30 18 O 3.4641 -5.5 0.0 0
M  V30 19 C 2.598 -6.0 0.0 0
M  V30 20 C 1.732 -4.4999 0.0 0 CFG=2
M  V30 21 N 1.732 -0.5 0.0 0
M  V30 22 O 3.4641 -6.5 0.0 0
M  V30 23 C 1.732 -6.5 0.0 0
M  V30 24 C 0.866 -5.0 0.0 0 CFG=2
M  V30 25 O 0.866 0.0 0.0 0
M  V30 26 C 1.732 -1.5 0.0 0
M  V30 27 C 0.866 -6.0 0.0 0
M  V30 28 C 1.732 -7.5 0.0 0
M  V30 29 N 0.0 -4.5 0.0 0
M  V30 30 C 0.0 -0.5 0.0 0
M  V30 31 O 0.0 -6.5 0.0 0
M  V30 32 O 0.866 -7.9999 0.0 0
M  V30 33 N 2.598 -8.0 0.0 0
M  V30 34 C 0.0 -3.5 0.0 0
M  V30 35 C -0.866 -5.0 0.0 0
M  V30 END ATOM
M  V30 BEGIN BOND
M  V30 1 2 1 2
M  V30 2 1 2 3
M  V30 3 1 2 4
M  V30 4 2 3 5
M  V30 5 1 3 6
M  V30 6 2 4 7
M  V30 7 1 8 4
M  V30 8 1 5 9
M  V30 9 1 5 10
M  V30 10 2 6 11
M  V30 11 1 6 12
M  V30 12 1 7 13
M  V30 13 1 14 7
M  V30 14 1 8 15 CFG=1
M  V30 15 2 10 16
M  V30 16 1 11 17
M  V30 17 1 14 18 CFG=3
M  V30 18 1 14 19
M  V30 19 1 20 14
M  V30 20 1 17 21
M  V30 21 2 19 22
M  V30 22 1 19 23
M  V30 23 1 24 20
M  V30 24 1 21 25
M  V30 25 1 21 26
M  V30 26 2 23 27
M  V30 27 1 23 28
M  V30 28 1 24 29 CFG=3
M  V30 29 1 25 30
M  V30 30 1 27 31
M  V30 31 2 28 32
M  V30 32 1 28 33
M  V30 33 1 29 34
M  V30 34 1 29 35
M  V30 35 1 8 12
M  V30 36 1 11 16
M  V30 37 1 20 15 CFG=1
M  V30 38 1 24 27
M  V30 END BOND
M  V30 BEGIN COLLECTION
M  V30 MDLV30/STERAC1 ATOMS=(4 8 14 20 24)
M  V30 END COLLECTION
M  V30 END CTAB
M  END
>  <Molecule Name>


>  <status>
-

>  <cas>
1035654-66-0

>  <name>
SARECYCLINE

>  <ID>
1893

>  <Smiles>
CN(C)[C@H]([C@@H](C[C@@H](Cc1c(CN(C)OC)ccc(O)c1C1=O)C1=C1O)[C@@]11O)C(O)=C(C(N)=O)C1=O

$$$$

Actelion Java MolfileCreator 2.0

  0  0  0  0  0  0              0 V3000
M  V30 BEGIN CTAB
M  V30 COUNTS 27 30 0 0 0
M  V30 BEGIN ATOM
M  V30 1 O -2.942 -10.8164 0.0 0
M  V30 2 C -2.4778 -9.3878 0.0 0
M  V30 3 C -3.4829 -8.2715 0.0 0
M  V30 4 C -1.0086 -9.0755 0.0 0
M  V30 5 C -3.0188 -6.8429 0.0 0
M  V30 6 C -0.5444 -7.6469 0.0 0
M  V30 7 C -1.5495 -6.5306 0.0 0 CFG=1
M  V30 8 C -4.0239 -5.7267 0.0 0
M  V30 9 C -1.0853 -5.1021 0.0 0 CFG=1
M  V30 10 C -3.5597 -4.2981 0.0 0
M  V30 11 C -2.0904 -3.9858 0.0 0 CFG=2
M  V30 12 C 0.3839 -4.7897 0.0 0
M  V30 13 C -1.6262 -2.5572 0.0 0 CFG=2
M  V30 14 C 0.7901 -3.4119 0.0 0
M  V30 15 C -0.157 -2.2449 0.0 0 CFG=1
M  V30 16 C -2.3773 -1.2563 0.0 0
M  V30 17 C 0.0 -0.751 0.0 0 CFG=2
M  V30 18 C 1.4056 -1.9568 0.0 0
M  V30 19 C -1.3722 -0.14 0.0 0
M  V30 20 O 1.3008 0.0 0.0 0
M  V30 21 C 1.2286 -1.4003 0.0 0
M  V30 22 C -1.6845 1.3291 0.0 0
M  V30 23 C 1.3008 1.5021 0.0 0
M  V30 24 O 1.2969 -2.9676 0.0 0
M  V30 25 C 2.5981 -0.8872 0.0 0
M  V30 26 O 2.6017 2.2531 0.0 0
M  V30 27 C 0.0 2.2531 0.0 0
M  V30 END ATOM
M  V30 BEGIN BOND
M  V30 1 2 1 2
M  V30 2 1 2 3
M  V30 3 1 2 4
M  V30 4 2 3 5
M  V30 5 1 4 6
M  V30 6 1 7 5
M  V30 7 1 5 8
M  V30 8 1 9 7
M  V30 9 1 8 10
M  V30 10 1 11 9
M  V30 11 1 9 12 CFG=1
M  V30 12 1 13 11
M  V30 13 1 12 14
M  V30 14 1 15 13
M  V30 15 1 13 16 CFG=1
M  V30 16 1 17 15
M  V30 17 1 15 18 CFG=1
M  V30 18 1 16 19
M  V30 19 1 17 20
M  V30 20 1 17 21 CFG=1
M  V30 21 2 19 22
M  V30 22 1 20 23
M  V30 23 2 21 24
M  V30 24 1 21 25
M  V30 25 2 23 26
M  V30 26 1 23 27
M  V30 27 1 7 6 CFG=3
M  V30 28 1 11 10 CFG=3
M  V30 29 1 14 15
M  V30 30 1 17 19
M  V30 END BOND
M  V30 BEGIN COLLECTION
M  V30 MDLV30/STERAC1 ATOMS=(6 7 9 11 13 15 17)
M  V30 END COLLECTION
M  V30 END CTAB
M  END
>  <Molecule Name>


>  <status>
-

>  <cas>
7759-35-5

>  <name>
SEGESTERONE ACETATE

>  <ID>
1894

>  <Smiles>
C[C@@](CC1)([C@H](CC2=C)[C@@H](CC3)[C@@H]1[C@H](CC1)C3=CC1=O)[C@@]2(C(C)=O)OC(C)=O

$$$$

Actelion Java MolfileCreator 2.0

  0  0  0  0  0  0              0 V3000
M  V30 BEGIN CTAB
M  V30 COUNTS 40 43 0 0 0
M  V30 BEGIN ATOM
M  V30 1 O 6.0621 0.9999 0.0 0
M  V30 2 C 6.0621 0.0 0.0 0
M  V30 3 C 5.1961 -0.5 0.0 0
M  V30 4 C 6.9282 -0.5 0.0 0
M  V30 5 C 4.3301 0.0 0.0 0
M  V30 6 C 5.1961 -1.5 0.0 0
M  V30 7 C 7.7942 0.0 0.0 0
M  V30 8 C 6.9282 -1.5 0.0 0 CFG=2
M  V30 9 O 4.3301 0.9999 0.0 0
M  V30 10 C 3.4641 -0.5 0.0 0
M  V30 11 C 4.3301 -2.0 0.0 0
M  V30 12 C 6.0621 -2.0 0.0 0
M  V30 13 O 7.7942 0.9999 0.0 0
M  V30 14 C 8.6602 -0.5 0.0 0 CFG=1
M  V30 15 C 7.7942 -2.0 0.0 0
M  V30 16 C 3.4641 -1.4999 0.0 0
M  V30 17 C 2.598 0.0 0.0 0
M  V30 18 N 4.3301 -3.0 0.0 0
M  V30 19 O 8.6602 0.4999 0.0 0
M  V30 20 C 9.5262 0.0 0.0 0
M  V30 21 C 8.6602 -1.5 0.0 0 CFG=2
M  V30 22 N 1.732 -0.5 0.0 0
M  V30 23 C 3.4641 -3.5 0.0 0
M  V30 24 C 5.1961 -3.5 0.0 0
M  V30 25 O 9.5262 0.9999 0.0 0
M  V30 26 C 10.3923 -0.5 0.0 0
M  V30 27 C 9.5262 -2.0 0.0 0 CFG=2
M  V30 28 C 0.866 0.0 0.0 0
M  V30 29 C 10.3923 -1.5 0.0 0
M  V30 30 C 11.2583 0.0 0.0 0
M  V30 31 N 9.5262 -3.0 0.0 0
M  V30 32 C 0.0 -0.5 0.0 0
M  V30 33 O 11.2583 -2.0 0.0 0
M  V30 34 O 12.1243 -0.5 0.0 0
M  V30 35 N 11.2583 0.9999 0.0 0
M  V30 36 C 8.6602 -3.5 0.0 0
M  V30 37 C 10.3923 -3.5 0.0 0
M  V30 38 C 0.4999 -1.366 0.0 0
M  V30 39 C -0.866 -0.9999 0.0 0
M  V30 40 C -0.4999 0.366 0.0 0
M  V30 END ATOM
M  V30 BEGIN BOND
M  V30 1 2 1 2
M  V30 2 1 2 3
M  V30 3 1 2 4
M  V30 4 2 3 5
M  V30 5 1 3 6
M  V30 6 2 4 7
M  V30 7 1 8 4
M  V30 8 1 5 9
M  V30 9 1 5 10
M  V30 10 2 6 11
M  V30 11 1 6 12
M  V30 12 1 7 13
M  V30 13 1 14 7
M  V30 14 1 8 15 CFG=1
M  V30 15 2 10 16
M  V30 16 1 10 17
M  V30 17 1 11 18
M  V30 18 1 14 19 CFG=3
M  V30 19 1 14 20
M  V30 20 1 21 14
M  V30 21 1 17 22
M  V30 22 1 18 23
M  V30 23 1 18 24
M  V30 24 2 20 25
M  V30 25 1 20 26
M  V30 26 1 27 21
M  V30 27 1 22 28
M  V30 28 2 26 29
M  V30 29 1 26 30
M  V30 30 1 27 31 CFG=3
M  V30 31 1 28 32
M  V30 32 1 29 33
M  V30 33 2 30 34
M  V30 34 1 30 35
M  V30 35 1 31 36
M  V30 36 1 31 37
M  V30 37 1 32 38
M  V30 38 1 32 39
M  V30 39 1 32 40
M  V30 40 1 8 12
M  V30 41 1 11 16
M  V30 42 1 21 15 CFG=1
M  V30 43 1 27 29
M  V30 END BOND
M  V30 BEGIN COLLECTION
M  V30 MDLV30/STERAC1 ATOMS=(4 8 14 21 27)
M  V30 END COLLECTION
M  V30 END CTAB
M  END
>  <Molecule Name>


>  <status>
-

>  <cas>
389139-89-3

>  <name>
OMADACYCLINE

>  <ID>
1895

>  <Smiles>
CC(C)(C)CNCc1cc(N(C)C)c(C[C@H](C[C@H]([C@H](C(O)=C(C(N)=O)C2=O)N(C)C)[C@@]22O)C(C3=O)=C2O)c3c1O

$$$$

Actelion Java MolfileCreator 2.0

  0  0  0  0  0  0              0 V3000
M  V30 BEGIN CTAB
M  V30 COUNTS 37 40 0 0 0
M  V30 BEGIN ATOM
M  V30 1 F 7.4282 0.366 0.0 0
M  V30 2 C 6.9282 -0.5 0.0 0
M  V30 3 F 7.7942 -1.0 0.0 0
M  V30 4 F 6.4282 -1.366 0.0 0
M  V30 5 C 6.0621 0.0 0.0 0
M  V30 6 C 6.0621 0.9999 0.0 0
M  V30 7 C 5.1961 -0.5 0.0 0
M  V30 8 C 5.1961 1.4999 0.0 0
M  V30 9 C 6.9282 1.4999 0.0 0
M  V30 10 C 4.3301 0.0 0.0 0
M  V30 11 C 4.3301 1.0 0.0 0
M  V30 12 C 7.7942 0.9999 0.0 0
M  V30 13 C 6.9282 2.4999 0.0 0
M  V30 14 C 3.4641 -0.5 0.0 0
M  V30 15 C 8.6602 1.4999 0.0 0
M  V30 16 C 7.7942 2.9999 0.0 0
M  V30 17 O 2.598 0.0 0.0 0
M  V30 18 C 8.6602 2.4999 0.0 0
M  V30 19 N 1.732 -0.5 0.0 0
M  V30 20 C 0.866 0.0 0.0 0
M  V30 21 C 0.0 -0.5 0.0 0
M  V30 22 C 0.866 0.9999 0.0 0
M  V30 23 C 0.0 -1.5 0.0 0
M  V30 24 C -0.866 0.0 0.0 0
M  V30 25 C -0.866 -1.9999 0.0 0
M  V30 26 C -1.732 -0.5 0.0 0
M  V30 27 C -1.732 -1.5 0.0 0
M  V30 28 C -0.866 -3.0 0.0 0
M  V30 29 C -2.598 -2.0 0.0 0
M  V30 30 C -1.732 -3.5 0.0 0
M  V30 31 N -3.4641 -1.5 0.0 0
M  V30 32 C -4.43 -1.7588 0.0 0
M  V30 33 C -3.7229 -0.534 0.0 0
M  V30 34 C -4.6888 -0.7928 0.0 0
M  V30 35 C -5.5548 -0.2928 0.0 0
M  V30 36 O -6.4208 -0.7928 0.0 0
M  V30 37 O -5.5548 0.7071 0.0 0 CHG=-1
M  V30 END ATOM
M  V30 BEGIN BOND
M  V30 1 1 1 2
M  V30 2 1 2 3
M  V30 3 1 2 4
M  V30 4 1 2 5
M  V30 5 2 5 6
M  V30 6 1 5 7
M  V30 7 1 6 8
M  V30 8 1 6 9
M  V30 9 2 7 10
M  V30 10 2 8 11
M  V30 11 1 9 12
M  V30 12 1 9 13
M  V30 13 1 10 14
M  V30 14 1 12 15
M  V30 15 1 13 16
M  V30 16 1 14 17
M  V30 17 1 15 18
M  V30 18 1 17 19
M  V30 19 2 19 20
M  V30 20 1 20 21
M  V30 21 1 20 22
M  V30 22 2 21 23
M  V30 23 1 21 24
M  V30 24 1 23 25
M  V30 25 2 24 26
M  V30 26 2 25 27
M  V30 27 1 25 28
M  V30 28 1 27 29
M  V30 29 1 28 30
M  V30 30 1 29 31
M  V30 31 1 31 32
M  V30 32 1 31 33
M  V30 33 1 32 34
M  V30 34 1 34 35
M  V30 35 2 35 36
M  V30 36 1 35 37
M  V30 37 1 10 11
M  V30 38 1 16 18
M  V30 39 1 26 27
M  V30 40 1 33 34
M  V30 END BOND
M  V30 END CTAB
M  END
>  <Molecule Name>


>  <status>
-

>  <cas>
1230487-00-9

>  <name>
SIPONIMOD

>  <ID>
1896

>  <Smiles>
CCc1c(CN(C2)CC2C([O-])=O)ccc(/C(/C)=N/OCc2cc(C(F)(F)F)c(C3CCCCC3)cc2)c1

$$$$

Actelion Java MolfileCreator 2.0

  0  0  0  0  0  0              0 V3000
M  V30 BEGIN CTAB
M  V30 COUNTS 25 27 0 0 0
M  V30 BEGIN ATOM
M  V30 1 Cl 9.5262 3.9999 0.0 0
M  V30 2 C 9.5262 2.9999 0.0 0
M  V30 3 C 10.3923 2.4999 0.0 0
M  V30 4 C 8.6602 2.4999 0.0 0
M  V30 5 N 11.2583 2.9999 0.0 0
M  V30 6 C 10.3923 1.4999 0.0 0
M  V30 7 C 8.6602 1.4999 0.0 0
M  V30 8 C 9.5262 0.9999 0.0 0
M  V30 9 C 11.1354 0.8308 0.0 0
M  V30 10 C 7.7942 0.9999 0.0 0
M  V30 11 O 9.7341 0.0218 0.0 0
M  V30 12 C 10.7287 -0.0826 0.0 0
M  V30 13 O 7.7942 0.0 0.0 0
M  V30 14 N 6.9282 1.4999 0.0 0
M  V30 15 C 6.0621 0.9999 0.0 0
M  V30 16 C 5.1961 1.4999 0.0 0
M  V30 17 C 6.0621 0.0 0.0 0
M  V30 18 C 4.3301 0.9999 0.0 0
M  V30 19 C 5.1961 -0.5 0.0 0
M  V30 20 N 4.3301 0.0 0.0 0
M  V30 21 C 3.4641 -0.5 0.0 0
M  V30 22 C 2.598 0.0 0.0 0
M  V30 23 C 1.732 -0.5 0.0 0
M  V30 24 O 0.866 0.0 0.0 0
M  V30 25 C 0.0 -0.5 0.0 0
M  V30 END ATOM
M  V30 BEGIN BOND
M  V30 1 1 1 2
M  V30 2 2 2 3
M  V30 3 1 2 4
M  V30 4 1 3 5
M  V30 5 1 3 6
M  V30 6 2 4 7
M  V30 7 2 6 8
M  V30 8 1 6 9
M  V30 9 1 7 10
M  V30 10 1 8 11
M  V30 11 1 9 12
M  V30 12 2 10 13
M  V30 13 1 10 14
M  V30 14 1 14 15
M  V30 15 1 15 16
M  V30 16 1 15 17
M  V30 17 1 16 18
M  V30 18 1 17 19
M  V30 19 1 18 20
M  V30 20 1 20 21
M  V30 21 1 21 22
M  V30 22 1 22 23
M  V30 23 1 23 24
M  V30 24 1 24 25
M  V30 25 1 7 8
M  V30 26 1 11 12
M  V30 27 1 19 20
M  V30 END BOND
M  V30 END CTAB
M  END
>  <Molecule Name>


>  <status>
-

>  <cas>
179474-81-8

>  <name>
PRUCALOPRIDE

>  <ID>
1897

>  <Smiles>
COCCCN(CC1)CCC1NC(c(c1c2CCO1)cc(Cl)c2N)=O

$$$$

Actelion Java MolfileCreator 2.0

  0  0  0  0  0  0              0 V3000
M  V30 BEGIN CTAB
M  V30 COUNTS 41 43 0 0 0
M  V30 BEGIN ATOM
M  V30 1 O 5.1961 -2.25 0.0 0
M  V30 2 C 5.1961 -0.75 0.0 0
M  V30 3 N 6.4951 0.0 0.0 0
M  V30 4 C 3.8971 0.0 0.0 0 CFG=1
M  V30 5 C 7.7942 -0.75 0.0 0 CFG=1
M  V30 6 O 3.8971 1.5 0.0 0
M  V30 7 C 2.598 -0.75 0.0 0
M  V30 8 C 7.7942 -2.25 0.0 0 CFG=2
M  V30 9 C 9.0932 0.0 0.0 0
M  V30 10 C 1.299 0.0 0.0 0
M  V30 11 O 6.4951 -3.0 0.0 0
M  V30 12 C 9.0932 -3.0 0.0 0 CFG=1
M  V30 13 C 10.3923 -0.75 0.0 0 CFG=1
M  V30 14 N 0.0 -0.75 0.0 0
M  V30 15 C 6.4951 -4.5 0.0 0 CFG=1
M  V30 16 O 9.0932 -4.5 0.0 0
M  V30 17 C 10.3923 -2.25 0.0 0 CFG=1
M  V30 18 N 11.6913 0.0 0.0 0
M  V30 19 O 7.7942 -5.25 0.0 0
M  V30 20 C 5.1961 -5.25 0.0 0 CFG=2
M  V30 21 O 11.6913 -3.0 0.0 0
M  V30 22 C 7.7942 -6.75 0.0 0
M  V30 23 O 3.8971 -4.5 0.0 0
M  V30 24 C 5.1961 -6.75 0.0 0 CFG=2
M  V30 25 C 12.9903 -2.25 0.0 0 CFG=1
M  V30 26 C 6.4951 -7.5 0.0 0 CFG=1
M  V30 27 N 3.8971 -7.5 0.0 0
M  V30 28 O 12.9903 -0.75 0.0 0
M  V30 29 C 14.2894 -3.0 0.0 0 CFG=2
M  V30 30 O 7.2451 -8.799 0.0 0
M  V30 31 C 5.7451 -8.799 0.0 0
M  V30 32 C 2.598 -6.75 0.0 0
M  V30 33 C 14.2894 0.0 0.0 0
M  V30 34 N 14.2894 -4.5 0.0 0
M  V30 35 C 15.5884 -2.25 0.0 0
M  V30 36 C 15.5884 -0.75 0.0 0
M  V30 37 C 14.2894 1.5 0.0 0
M  V30 38 N 12.9903 2.25 0.0 0
M  V30 39 C 12.9903 3.75 0.0 0
M  V30 40 C 11.6913 4.5 0.0 0
M  V30 41 O 11.6913 6.0 0.0 0
M  V30 END ATOM
M  V30 BEGIN BOND
M  V30 1 2 1 2
M  V30 2 1 2 3
M  V30 3 1 4 2
M  V30 4 1 5 3 CFG=3
M  V30 5 1 4 6 CFG=3
M  V30 6 1 4 7
M  V30 7 1 8 5
M  V30 8 1 5 9
M  V30 9 1 7 10
M  V30 10 1 8 11 CFG=1
M  V30 11 1 12 8
M  V30 12 1 13 9
M  V30 13 1 10 14
M  V30 14 1 15 11 CFG=1
M  V30 15 1 12 16 CFG=3
M  V30 16 1 17 12
M  V30 17 1 13 18 CFG=3
M  V30 18 1 15 19
M  V30 19 1 20 15
M  V30 20 1 17 21 CFG=1
M  V30 21 1 19 22
M  V30 22 1 20 23 CFG=1
M  V30 23 1 24 20
M  V30 24 1 25 21 CFG=1
M  V30 25 1 26 22
M  V30 26 1 24 27 CFG=3
M  V30 27 1 25 28
M  V30 28 1 29 25
M  V30 29 1 26 30 CFG=3
M  V30 30 1 26 31
M  V30 31 1 27 32
M  V30 32 1 28 33
M  V30 33 1 29 34 CFG=1
M  V30 34 1 29 35
M  V30 35 2 33 36
M  V30 36 1 33 37
M  V30 37 1 37 38
M  V30 38 1 38 39
M  V30 39 1 39 40
M  V30 40 1 40 41
M  V30 41 1 13 17
M  V30 42 1 24 26
M  V30 43 1 35 36
M  V30 END BOND
M  V30 BEGIN COLLECTION
M  V30 MDLV30/STERAC1 ATOMS=(12 4 5 8 12 13 15 17 20 24 25 26 29)
M  V30 END COLLECTION
M  V30 END CTAB
M  END
>  <Molecule Name>


>  <status>
-

>  <cas>
1154757-24-0

>  <name>
PLAZOMICIN

>  <ID>
1898

>  <Smiles>
C[C@](CO[C@@H]([C@@H]1O)O[C@@H]([C@@H](C[C@@H]([C@H]2O[C@H]3OC(CNCCO)=CC[C@H]3N)N)NC([C@H](CCN)O)=O)[C@H]2O)([C@@H]1NC)O

$$$$

Actelion Java MolfileCreator 2.0

  0  0  0  0  0  0              0 V3000
M  V30 BEGIN CTAB
M  V30 COUNTS 23 25 0 0 0
M  V30 BEGIN ATOM
M  V30 1 O 3.9843 0.0 0.0 0
M  V30 2 C 2.6562 -0.7667 0.0 0
M  V30 3 O 2.8206 -2.2017 0.0 0
M  V30 4 C 1.3281 0.0 0.0 0 CFG=2
M  V30 5 C 3.9843 -3.0671 0.0 0 CFG=1
M  V30 6 O 1.3281 1.5335 0.0 0
M  V30 7 C 1.3281 -1.5335 0.0 0
M  V30 8 C 0.0 -0.7667 0.0 0
M  V30 9 C 5.3853 -2.4434 0.0 0
M  V30 10 C 4.1446 -4.5923 0.0 0
M  V30 11 C 0.3021 -2.3241 0.0 0
M  V30 12 C 2.3274 -2.4976 0.0 0
M  V30 13 C -1.4009 -0.143 0.0 0
M  V30 14 C -0.3115 -2.2814 0.0 0
M  V30 15 N 6.4115 -3.583 0.0 0 CHG=1
M  V30 16 C 5.6447 -4.9112 0.0 0
M  V30 17 C 0.0 -3.8339 0.0 0
M  V30 18 C 2.6562 -3.8339 0.0 0
M  V30 19 C -2.4271 -1.2827 0.0 0
M  V30 20 C -1.6603 -2.6108 0.0 0
M  V30 21 C 7.6521 -2.6816 0.0 0
M  V30 22 C 7.8124 -4.2068 0.0 0
M  V30 23 C 1.3281 -4.6007 0.0 0
M  V30 END ATOM
M  V30 BEGIN BOND
M  V30 1 2 1 2
M  V30 2 1 2 3
M  V30 3 1 4 2
M  V30 4 1 5 3 CFG=1
M  V30 5 1 4 6
M  V30 6 1 4 7 CFG=1
M  V30 7 1 4 8
M  V30 8 1 5 9
M  V30 9 1 5 10
M  V30 10 2 7 11
M  V30 11 1 7 12
M  V30 12 1 8 13
M  V30 13 1 8 14
M  V30 14 1 9 15
M  V30 15 1 10 16
M  V30 16 1 11 17
M  V30 17 2 12 18
M  V30 18 1 13 19
M  V30 19 1 14 20
M  V30 20 1 15 21
M  V30 21 1 15 22
M  V30 22 2 17 23
M  V30 23 1 15 16
M  V30 24 1 18 23
M  V30 25 1 19 20
M  V30 END BOND
M  V30 BEGIN COLLECTION
M  V30 MDLV30/STERAC1 ATOMS=(2 4 5)
M  V30 END COLLECTION
M  V30 END CTAB
M  END
>  <Molecule Name>


>  <status>
-

>  <cas>
596-51-0

>  <name>
GLYCOPYRRONIUM

>  <ID>
1899

>  <Smiles>
C[N+](C)(CC1)C[C@@H]1OC([C@@](C1CCCC1)(c1ccccc1)O)=O

$$$$

Actelion Java MolfileCreator 2.0

  0  0  0  0  0  0              0 V3000
M  V30 BEGIN CTAB
M  V30 COUNTS 23 25 0 0 0
M  V30 BEGIN ATOM
M  V30 1 O 3.9843 0.0 0.0 0
M  V30 2 C 2.6562 -0.7667 0.0 0
M  V30 3 O 2.8206 -2.2017 0.0 0
M  V30 4 C 1.3281 0.0 0.0 0 CFG=2
M  V30 5 C 3.9843 -3.0671 0.0 0 CFG=1
M  V30 6 O 1.3281 1.5335 0.0 0
M  V30 7 C 1.3281 -1.5335 0.0 0
M  V30 8 C 0.0 -0.7667 0.0 0
M  V30 9 C 5.3853 -2.4434 0.0 0
M  V30 10 C 4.1446 -4.5923 0.0 0
M  V30 11 C 0.3021 -2.3241 0.0 0
M  V30 12 C 2.3274 -2.4976 0.0 0
M  V30 13 C -1.4009 -0.143 0.0 0
M  V30 14 C -0.3115 -2.2814 0.0 0
M  V30 15 N 6.4115 -3.583 0.0 0 CHG=1
M  V30 16 C 5.6447 -4.9112 0.0 0
M  V30 17 C 0.0 -3.8339 0.0 0
M  V30 18 C 2.6562 -3.8339 0.0 0
M  V30 19 C -2.4271 -1.2827 0.0 0
M  V30 20 C -1.6603 -2.6108 0.0 0
M  V30 21 C 7.6521 -2.6816 0.0 0
M  V30 22 C 7.8124 -4.2068 0.0 0
M  V30 23 C 1.3281 -4.6007 0.0 0
M  V30 END ATOM
M  V30 BEGIN BOND
M  V30 1 2 1 2
M  V30 2 1 2 3
M  V30 3 1 4 2
M  V30 4 1 5 3 CFG=1
M  V30 5 1 4 6
M  V30 6 1 4 7 CFG=1
M  V30 7 1 4 8
M  V30 8 1 5 9
M  V30 9 1 5 10
M  V30 10 2 7 11
M  V30 11 1 7 12
M  V30 12 1 8 13
M  V30 13 1 8 14
M  V30 14 1 9 15
M  V30 15 1 10 16
M  V30 16 1 11 17
M  V30 17 2 12 18
M  V30 18 1 13 19
M  V30 19 1 14 20
M  V30 20 1 15 21
M  V30 21 1 15 22
M  V30 22 2 17 23
M  V30 23 1 15 16
M  V30 24 1 18 23
M  V30 25 1 19 20
M  V30 END BOND
M  V30 BEGIN COLLECTION
M  V30 MDLV30/STERAC1 ATOMS=(2 4 5)
M  V30 END COLLECTION
M  V30 END CTAB
M  END
>  <Molecule Name>


>  <status>
-

>  <cas>
596-51-0

>  <name>
GLYCOPYRRONIUM

>  <ID>
1900

>  <Smiles>
C[N+](C)(CC1)C[C@@H]1OC([C@@](C1CCCC1)(c1ccccc1)O)=O

$$$$

Actelion Java MolfileCreator 2.0

  0  0  0  0  0  0              0 V3000
M  V30 BEGIN CTAB
M  V30 COUNTS 23 25 0 0 0
M  V30 BEGIN ATOM
M  V30 1 O 3.9843 0.0 0.0 0
M  V30 2 C 2.6562 -0.7667 0.0 0
M  V30 3 O 2.8206 -2.2017 0.0 0
M  V30 4 C 1.3281 0.0 0.0 0 CFG=2
M  V30 5 C 3.9843 -3.0671 0.0 0 CFG=2
M  V30 6 O 1.3281 1.5335 0.0 0
M  V30 7 C 1.3281 -1.5335 0.0 0
M  V30 8 C 0.0 -0.7667 0.0 0
M  V30 9 C 5.3853 -2.4434 0.0 0
M  V30 10 C 4.1446 -4.5923 0.0 0
M  V30 11 C 0.3021 -2.3241 0.0 0
M  V30 12 C 2.3274 -2.4976 0.0 0
M  V30 13 C -1.4009 -0.143 0.0 0
M  V30 14 C -0.3115 -2.2814 0.0 0
M  V30 15 N 6.4115 -3.583 0.0 0 CHG=1
M  V30 16 C 5.6447 -4.9112 0.0 0
M  V30 17 C 0.0 -3.8339 0.0 0
M  V30 18 C 2.6562 -3.8339 0.0 0
M  V30 19 C -2.4271 -1.2827 0.0 0
M  V30 20 C -1.6603 -2.6108 0.0 0
M  V30 21 C 7.6521 -2.6816 0.0 0
M  V30 22 C 7.8124 -4.2068 0.0 0
M  V30 23 C 1.3281 -4.6007 0.0 0
M  V30 END ATOM
M  V30 BEGIN BOND
M  V30 1 2 1 2
M  V30 2 1 2 3
M  V30 3 1 4 2
M  V30 4 1 5 3 CFG=3
M  V30 5 1 4 6
M  V30 6 1 4 7 CFG=1
M  V30 7 1 4 8
M  V30 8 1 5 9
M  V30 9 1 5 10
M  V30 10 2 7 11
M  V30 11 1 7 12
M  V30 12 1 8 13
M  V30 13 1 8 14
M  V30 14 1 9 15
M  V30 15 1 10 16
M  V30 16 1 11 17
M  V30 17 2 12 18
M  V30 18 1 13 19
M  V30 19 1 14 20
M  V30 20 1 15 21
M  V30 21 1 15 22
M  V30 22 2 17 23
M  V30 23 1 15 16
M  V30 24 1 18 23
M  V30 25 1 19 20
M  V30 END BOND
M  V30 BEGIN COLLECTION
M  V30 MDLV30/STERAC1 ATOMS=(2 4 5)
M  V30 END COLLECTION
M  V30 END CTAB
M  END
>  <Molecule Name>


>  <status>
-

>  <cas>
596-51-0

>  <name>
GLYCOPYRRONIUM

>  <ID>
1901

>  <Smiles>
C[N+](C)(CC1)C[C@H]1OC([C@@](C1CCCC1)(c1ccccc1)O)=O

$$$$

Actelion Java MolfileCreator 2.0

  0  0  0  0  0  0              0 V3000
M  V30 BEGIN CTAB
M  V30 COUNTS 23 24 0 0 0
M  V30 BEGIN ATOM
M  V30 1 O 6.9282 -0.5 0.0 0
M  V30 2 C 6.0621 0.0 0.0 0
M  V30 3 C 6.0621 0.9999 0.0 0
M  V30 4 C 5.1961 -0.5 0.0 0
M  V30 5 C 5.1961 1.4999 0.0 0
M  V30 6 C 6.9282 1.4999 0.0 0 CFG=2
M  V30 7 C 4.3301 0.0 0.0 0
M  V30 8 O 5.0574 2.708 0.0 0
M  V30 9 C 4.3301 1.0 0.0 0
M  V30 10 C 7.7942 0.9999 0.0 0
M  V30 11 C 6.9282 2.4999 0.0 0 CFG=2
M  V30 12 C 3.4641 -0.5 0.0 0
M  V30 13 C 8.6602 1.4999 0.0 0
M  V30 14 C 6.0621 2.9999 0.0 0
M  V30 15 C 7.7942 2.9999 0.0 0
M  V30 16 C 2.598 0.0 0.0 0
M  V30 17 C 8.6602 2.4999 0.0 0
M  V30 18 C 9.5262 0.9999 0.0 0
M  V30 19 C 6.0621 3.9999 0.0 0
M  V30 20 C 5.1961 2.4999 0.0 0
M  V30 21 C 1.732 -0.5 0.0 0
M  V30 22 C 0.866 0.0 0.0 0
M  V30 23 C 0.0 -0.5 0.0 0
M  V30 END ATOM
M  V30 BEGIN BOND
M  V30 1 1 1 2
M  V30 2 2 2 3
M  V30 3 1 2 4
M  V30 4 1 3 5
M  V30 5 1 6 3 CFG=1
M  V30 6 2 4 7
M  V30 7 1 5 8
M  V30 8 2 5 9
M  V30 9 1 6 10
M  V30 10 1 11 6
M  V30 11 1 7 12
M  V30 12 2 10 13
M  V30 13 1 11 14 CFG=3
M  V30 14 1 11 15
M  V30 15 1 12 16
M  V30 16 1 13 17
M  V30 17 1 13 18
M  V30 18 2 14 19
M  V30 19 1 14 20
M  V30 20 1 16 21
M  V30 21 1 21 22
M  V30 22 1 22 23
M  V30 23 1 7 9
M  V30 24 1 15 17
M  V30 END BOND
M  V30 BEGIN COLLECTION
M  V30 MDLV30/STERAC1 ATOMS=(2 6 11)
M  V30 END COLLECTION
M  V30 END CTAB
M  END
>  <Molecule Name>


>  <status>
-

>  <cas>
13956-29-1

>  <name>
CANNABIDIOL

>  <ID>
1902

>  <Smiles>
CCCCCc1cc(O)c([C@@H]2C=C(C)CC[C@H]2C(C)=C)c(O)c1

$$$$

Actelion Java MolfileCreator 2.0

  0  0  0  0  0  0              0 V3000
M  V30 BEGIN CTAB
M  V30 COUNTS 24 25 0 0 0
M  V30 BEGIN ATOM
M  V30 1 O 6.9282 -0.5 0.0 0
M  V30 2 C 6.0621 0.0 0.0 0
M  V30 3 C 6.0621 0.9999 0.0 0
M  V30 4 C 5.1961 -0.5 0.0 0
M  V30 5 C 5.1961 1.4999 0.0 0
M  V30 6 C 6.9282 1.4999 0.0 0 CFG=2
M  V30 7 C 4.3301 0.0 0.0 0
M  V30 8 O 5.0574 2.708 0.0 0
M  V30 9 C 4.3301 1.0 0.0 0
M  V30 10 C 7.7942 0.9999 0.0 0
M  V30 11 C 6.9282 2.4999 0.0 0 CFG=2
M  V30 12 C 3.4641 -0.5 0.0 0
M  V30 13 C 8.6602 1.4999 0.0 0
M  V30 14 C 6.0621 2.9999 0.0 0
M  V30 15 C 7.7942 2.9999 0.0 0
M  V30 16 C 2.598 0.0 0.0 0
M  V30 17 C 8.6602 2.4999 0.0 0
M  V30 18 C 9.5262 0.9999 0.0 0
M  V30 19 C 6.0621 3.9999 0.0 0
M  V30 20 C 5.1961 2.4999 0.0 0
M  V30 21 C 1.732 -0.5 0.0 0
M  V30 22 O 10.3923 1.4999 0.0 0
M  V30 23 C 0.866 0.0 0.0 0
M  V30 24 C 0.0 -0.5 0.0 0
M  V30 END ATOM
M  V30 BEGIN BOND
M  V30 1 1 1 2
M  V30 2 2 2 3
M  V30 3 1 2 4
M  V30 4 1 3 5
M  V30 5 1 6 3 CFG=1
M  V30 6 2 4 7
M  V30 7 1 5 8
M  V30 8 2 5 9
M  V30 9 1 6 10
M  V30 10 1 11 6
M  V30 11 1 7 12
M  V30 12 2 10 13
M  V30 13 1 11 14 CFG=3
M  V30 14 1 11 15
M  V30 15 1 12 16
M  V30 16 1 13 17
M  V30 17 1 13 18
M  V30 18 2 14 19
M  V30 19 1 14 20
M  V30 20 1 16 21
M  V30 21 1 18 22
M  V30 22 1 21 23
M  V30 23 1 23 24
M  V30 24 1 7 9
M  V30 25 1 15 17
M  V30 END BOND
M  V30 BEGIN COLLECTION
M  V30 MDLV30/STERAC1 ATOMS=(2 6 11)
M  V30 END COLLECTION
M  V30 END CTAB
M  END
>  <Molecule Name>


>  <status>
-

>  <cas>
50725-17-2

>  <name>
M CANNABIDIOL

>  <ID>
1903

>  <Smiles>
CCCCCc1cc(O)c([C@@H]2C=C(CO)CC[C@H]2C(C)=C)c(O)c1

$$$$

Actelion Java MolfileCreator 2.0

  0  0  0  0  0  0              0 V3000
M  V30 BEGIN CTAB
M  V30 COUNTS 45 48 0 0 0
M  V30 BEGIN ATOM
M  V30 1 F 13.0568 2.2615 0.0 0
M  V30 2 C 14.3624 1.5076 0.0 0
M  V30 3 C 15.6681 2.2615 0.0 0
M  V30 4 C 14.3624 0.0 0.0 0
M  V30 5 O 15.6681 3.7691 0.0 0
M  V30 6 C 16.9738 1.5076 0.0 0
M  V30 7 C 13.0568 -0.7538 0.0 0
M  V30 8 C 15.6681 -0.7538 0.0 0
M  V30 9 C 16.9738 4.523 0.0 0
M  V30 10 C 16.9738 0.0 0.0 0
M  V30 11 C 11.7511 0.0 0.0 0
M  V30 12 C 13.0568 -2.2615 0.0 0
M  V30 13 O 11.7511 1.5076 0.0 0
M  V30 14 N 10.4454 -0.7538 0.0 0
M  V30 15 N 11.7511 -3.0153 0.0 0
M  V30 16 C 14.4268 -2.8382 0.0 0
M  V30 17 C 10.4454 -2.2615 0.0 0
M  V30 18 C 9.1397 0.0 0.0 0
M  V30 19 C 11.7511 -4.523 0.0 0
M  V30 20 O 9.1397 -3.0153 0.0 0
M  V30 21 C 7.834 -0.7538 0.0 0 CFG=2
M  V30 22 C 13.0568 -5.2768 0.0 0
M  V30 23 N 7.834 -2.2615 0.0 0
M  V30 24 C 6.5284 0.0 0.0 0
M  V30 25 C 14.3624 -4.523 0.0 0
M  V30 26 C 13.0568 -6.7845 0.0 0
M  V30 27 C 6.5284 -3.0153 0.0 0
M  V30 28 C 5.2227 -0.7538 0.0 0
M  V30 29 C 6.5284 1.5076 0.0 0
M  V30 30 F 14.2336 -3.3695 0.0 0
M  V30 31 C 15.6681 -5.2768 0.0 0
M  V30 32 C 14.3624 -7.5383 0.0 0
M  V30 33 C 11.7511 -7.5383 0.0 0
M  V30 34 C 5.2227 -2.2615 0.0 0
M  V30 35 C 3.917 0.0 0.0 0
M  V30 36 C 5.2227 2.2615 0.0 0
M  V30 37 C 15.6681 -6.7845 0.0 0
M  V30 38 F 10.9972 -6.2326 0.0 0
M  V30 39 F 10.4454 -8.2921 0.0 0
M  V30 40 F 12.5049 -8.844 0.0 0
M  V30 41 C 3.917 -3.0153 0.0 0
M  V30 42 C 3.917 1.5076 0.0 0
M  V30 43 C 3.917 -4.523 0.0 0
M  V30 44 O 5.2227 -5.2768 0.0 0
M  V30 45 O 2.6113 -5.2768 0.0 0 CHG=-1
M  V30 END ATOM
M  V30 BEGIN BOND
M  V30 1 1 1 2
M  V30 2 2 2 3
M  V30 3 1 2 4
M  V30 4 1 3 5
M  V30 5 1 3 6
M  V30 6 1 4 7
M  V30 7 2 4 8
M  V30 8 1 5 9
M  V30 9 2 6 10
M  V30 10 1 7 11
M  V30 11 2 7 12
M  V30 12 2 11 13
M  V30 13 1 11 14
M  V30 14 1 12 15
M  V30 15 1 12 16
M  V30 16 1 14 17
M  V30 17 1 14 18
M  V30 18 1 15 19
M  V30 19 2 17 20
M  V30 20 1 21 18
M  V30 21 1 19 22
M  V30 22 1 21 23 CFG=3
M  V30 23 1 21 24
M  V30 24 2 22 25
M  V30 25 1 22 26
M  V30 26 1 23 27
M  V30 27 2 24 28
M  V30 28 1 24 29
M  V30 29 1 25 30
M  V30 30 1 25 31
M  V30 31 2 26 32
M  V30 32 1 26 33
M  V30 33 1 27 34
M  V30 34 1 28 35
M  V30 35 2 29 36
M  V30 36 2 31 37
M  V30 37 1 33 38
M  V30 38 1 33 39
M  V30 39 1 33 40
M  V30 40 1 34 41
M  V30 41 2 35 42
M  V30 42 1 41 43
M  V30 43 2 43 44
M  V30 44 1 43 45
M  V30 45 1 8 10
M  V30 46 1 15 17
M  V30 47 1 32 37
M  V30 48 1 36 42
M  V30 END BOND
M  V30 BEGIN COLLECTION
M  V30 MDLV30/STERAC1 ATOMS=(1 21)
M  V30 END COLLECTION
M  V30 END CTAB
M  END
>  <Molecule Name>


>  <status>
-

>  <cas>
834153-87-6

>  <name>
ELAGOLIX

>  <ID>
1904

>  <Smiles>
CC(N(Cc(c(C(F)(F)F)ccc1)c1F)C(N1CC(c2ccccc2)NCCCC([O-])=O)=O)=C(c2cccc(OC)c2F)C1=O

$$$$

Actelion Java MolfileCreator 2.0

  0  0  0  0  0  0              0 V3000
M  V30 BEGIN CTAB
M  V30 COUNTS 36 38 0 0 0
M  V30 BEGIN ATOM
M  V30 1 Cl 10.0551 0.5134 0.0 0
M  V30 2 C 9.8472 1.4916 0.0 0
M  V30 3 C 10.5903 2.1607 0.0 0
M  V30 4 C 8.8961 1.8006 0.0 0
M  V30 5 C 10.3824 3.1388 0.0 0
M  V30 6 C 8.6882 2.7787 0.0 0
M  V30 7 N 11.1256 3.808 0.0 0
M  V30 8 C 9.4314 3.4478 0.0 0
M  V30 9 C 7.7372 3.0877 0.0 0
M  V30 10 S 12.0766 3.4989 0.0 0
M  V30 11 F 9.2235 4.426 0.0 0
M  V30 12 N 7.4282 4.0388 0.0 0
M  V30 13 C 6.9282 2.4999 0.0 0
M  V30 14 O 12.3856 4.45 0.0 0
M  V30 15 O 11.7676 2.5479 0.0 0
M  V30 16 C 13.0277 3.1899 0.0 0
M  V30 17 N 6.4282 4.0388 0.0 0
M  V30 18 C 6.9282 1.4999 0.0 0
M  V30 19 C 6.1191 3.0877 0.0 0
M  V30 20 C 5.8404 4.8478 0.0 0
M  V30 21 N 6.0621 0.9999 0.0 0
M  V30 22 C 7.7942 0.9999 0.0 0
M  V30 23 C 6.2471 5.7614 0.0 0
M  V30 24 C 4.8458 4.7433 0.0 0
M  V30 25 C 6.0621 0.0 0.0 0
M  V30 26 C 7.7942 0.0 0.0 0
M  V30 27 N 6.9282 -0.5 0.0 0
M  V30 28 N 5.1961 -0.5 0.0 0
M  V30 29 C 4.3301 0.0 0.0 0
M  V30 30 C 3.4641 -0.5 0.0 0 CFG=1
M  V30 31 N 2.598 0.0 0.0 0
M  V30 32 C 3.4641 -1.5 0.0 0
M  V30 33 C 1.732 -0.5 0.0 0
M  V30 34 O 1.732 -1.5 0.0 0
M  V30 35 O 0.866 0.0 0.0 0
M  V30 36 C 0.0 -0.5 0.0 0
M  V30 END ATOM
M  V30 BEGIN BOND
M  V30 1 1 1 2
M  V30 2 2 2 3
M  V30 3 1 2 4
M  V30 4 1 3 5
M  V30 5 2 4 6
M  V30 6 1 5 7
M  V30 7 2 5 8
M  V30 8 1 6 9
M  V30 9 1 7 10
M  V30 10 1 8 11
M  V30 11 2 9 12
M  V30 12 1 9 13
M  V30 13 2 10 14
M  V30 14 2 10 15
M  V30 15 1 10 16
M  V30 16 1 12 17
M  V30 17 1 13 18
M  V30 18 2 13 19
M  V30 19 1 17 20
M  V30 20 2 18 21
M  V30 21 1 18 22
M  V30 22 1 20 23
M  V30 23 1 20 24
M  V30 24 1 21 25
M  V30 25 2 22 26
M  V30 26 2 25 27
M  V30 27 1 25 28
M  V30 28 1 28 29
M  V30 29 1 30 29
M  V30 30 1 30 31 CFG=3
M  V30 31 1 30 32
M  V30 32 1 31 33
M  V30 33 2 33 34
M  V30 34 1 33 35
M  V30 35 1 35 36
M  V30 36 1 6 8
M  V30 37 1 17 19
M  V30 38 1 26 27
M  V30 END BOND
M  V30 BEGIN COLLECTION
M  V30 MDLV30/STERAC1 ATOMS=(1 30)
M  V30 END COLLECTION
M  V30 END CTAB
M  END
>  <Molecule Name>


>  <status>
-

>  <cas>
1269440-17-6

>  <name>
ENCORAFENIB

>  <ID>
1905

>  <Smiles>
CC(C)n(cc1-c2nc(NCC(C)NC(OC)=O)ncc2)nc1-c1cc(Cl)cc(NS(C)(=O)=O)c1F

$$$$

Actelion Java MolfileCreator 2.0

  0  0  0  0  0  0              0 V3000
M  V30 BEGIN CTAB
M  V30 COUNTS 27 29 0 0 0
M  V30 BEGIN ATOM
M  V30 1 Br 6.4951 -9.0 0.0 0
M  V30 2 C 6.4951 -7.4999 0.0 0
M  V30 3 C 5.1961 -6.7499 0.0 0
M  V30 4 C 7.7942 -6.75 0.0 0
M  V30 5 C 5.1961 -5.2499 0.0 0
M  V30 6 C 7.7942 -5.25 0.0 0
M  V30 7 F 3.8971 -4.4999 0.0 0
M  V30 8 C 6.4951 -4.4999 0.0 0
M  V30 9 N 6.4951 -2.9999 0.0 0
M  V30 10 C 7.7942 -2.25 0.0 0
M  V30 11 C 9.0932 -3.0 0.0 0
M  V30 12 C 7.7942 -0.75 0.0 0
M  V30 13 F 9.0932 -4.5 0.0 0
M  V30 14 C 10.3923 -2.25 0.0 0
M  V30 15 C 6.4951 0.0 0.0 0
M  V30 16 C 9.0932 0.0 0.0 0
M  V30 17 N 11.8188 -2.7135 0.0 0
M  V30 18 C 10.3923 -0.75 0.0 0
M  V30 19 O 5.1961 -0.75 0.0 0
M  V30 20 N 6.4951 1.5 0.0 0
M  V30 21 C 12.7005 -1.5 0.0 0
M  V30 22 N 11.8188 -0.2864 0.0 0
M  V30 23 O 5.1961 2.25 0.0 0
M  V30 24 C 12.2824 1.1401 0.0 0
M  V30 25 C 5.1961 3.75 0.0 0
M  V30 26 C 3.8971 4.5 0.0 0
M  V30 27 O 3.8971 6.0 0.0 0
M  V30 END ATOM
M  V30 BEGIN BOND
M  V30 1 1 1 2
M  V30 2 2 2 3
M  V30 3 1 2 4
M  V30 4 1 3 5
M  V30 5 2 4 6
M  V30 6 1 5 7
M  V30 7 2 5 8
M  V30 8 1 8 9
M  V30 9 1 9 10
M  V30 10 2 10 11
M  V30 11 1 10 12
M  V30 12 1 11 13
M  V30 13 1 11 14
M  V30 14 1 12 15
M  V30 15 2 12 16
M  V30 16 1 14 17
M  V30 17 2 14 18
M  V30 18 2 15 19
M  V30 19 1 15 20
M  V30 20 2 17 21
M  V30 21 1 18 22
M  V30 22 1 20 23
M  V30 23 1 22 24
M  V30 24 1 23 25
M  V30 25 1 25 26
M  V30 26 1 26 27
M  V30 27 1 6 8
M  V30 28 1 16 18
M  V30 29 1 21 22
M  V30 END BOND
M  V30 END CTAB
M  END
>  <Molecule Name>


>  <status>
-

>  <cas>
606143-89-9

>  <name>
BINIMETINIB

>  <ID>
1906

>  <Smiles>
Cn1c(cc(C(NOCCO)=O)c(Nc(ccc(Br)c2)c2F)c2F)c2nc1

$$$$

Actelion Java MolfileCreator 2.0

  0  0  0  0  0  0              0 V3000
M  V30 BEGIN CTAB
M  V30 COUNTS 33 35 0 0 0
M  V30 BEGIN ATOM
M  V30 1 F 10.0262 -4.1339 0.0 0
M  V30 2 C 9.5262 -5.0 0.0 0
M  V30 3 F 10.3923 -5.5 0.0 0
M  V30 4 F 9.0262 -5.866 0.0 0
M  V30 5 C 8.6602 -4.5 0.0 0
M  V30 6 C 8.6602 -3.5 0.0 0
M  V30 7 C 7.7942 -5.0 0.0 0
M  V30 8 C 7.7942 -3.0 0.0 0
M  V30 9 C 6.9282 -4.4999 0.0 0
M  V30 10 O 7.7942 -2.0 0.0 0
M  V30 11 C 6.9282 -3.5 0.0 0
M  V30 12 C 6.9282 -1.5 0.0 0
M  V30 13 C 6.9282 -0.5 0.0 0
M  V30 14 C 6.0621 -2.0 0.0 0
M  V30 15 C 6.0621 0.0 0.0 0
M  V30 16 C 7.7942 0.0 0.0 0
M  V30 17 O 6.0621 -3.0 0.0 0
M  V30 18 C 5.1961 -1.5 0.0 0
M  V30 19 N 6.0621 0.9999 0.0 0
M  V30 20 C 5.1961 -0.5 0.0 0
M  V30 21 C 7.7942 0.9999 0.0 0
M  V30 22 C 8.6602 -0.5 0.0 0
M  V30 23 C 5.1961 -3.4999 0.0 0
M  V30 24 C 6.9282 1.4999 0.0 0
M  V30 25 N 4.3301 0.0 0.0 0
M  V30 26 O 6.9282 2.5 0.0 0
M  V30 27 C 3.4641 -0.5 0.0 0 CFG=2
M  V30 28 C 6.0621 3.0 0.0 0
M  V30 29 C 2.598 0.0 0.0 0
M  V30 30 C 3.4641 -1.5 0.0 0
M  V30 31 C 1.732 -0.5 0.0 0
M  V30 32 C 0.866 0.0 0.0 0
M  V30 33 N 0.0 -0.5 0.0 0
M  V30 END ATOM
M  V30 BEGIN BOND
M  V30 1 1 1 2
M  V30 2 1 2 3
M  V30 3 1 2 4
M  V30 4 1 2 5
M  V30 5 2 5 6
M  V30 6 1 5 7
M  V30 7 1 6 8
M  V30 8 2 7 9
M  V30 9 1 8 10
M  V30 10 2 8 11
M  V30 11 1 10 12
M  V30 12 1 12 13
M  V30 13 2 12 14
M  V30 14 1 13 15
M  V30 15 2 13 16
M  V30 16 1 14 17
M  V30 17 1 14 18
M  V30 18 2 15 19
M  V30 19 1 15 20
M  V30 20 1 16 21
M  V30 21 1 16 22
M  V30 22 1 17 23
M  V30 23 1 19 24
M  V30 24 1 20 25
M  V30 25 1 24 26
M  V30 26 1 27 25 CFG=1
M  V30 27 1 26 28
M  V30 28 1 27 29
M  V30 29 1 27 30
M  V30 30 1 29 31
M  V30 31 1 31 32
M  V30 32 1 32 33
M  V30 33 1 9 11
M  V30 34 2 18 20
M  V30 35 2 21 24
M  V30 END BOND
M  V30 BEGIN COLLECTION
M  V30 MDLV30/STERAC1 ATOMS=(1 27)
M  V30 END COLLECTION
M  V30 END CTAB
M  END
>  <Molecule Name>


>  <status>
-

>  <cas>
106635-80-7

>  <name>
TAFENOQUINE

>  <ID>
1907

>  <Smiles>
CC(CCCN)Nc(c1nc(OC)cc(C)c11)cc(OC)c1Oc1cccc(C(F)(F)F)c1

$$$$

Actelion Java MolfileCreator 2.0

  0  0  0  0  0  0              0 V3000
M  V30 BEGIN CTAB
M  V30 COUNTS 33 35 0 0 0
M  V30 BEGIN ATOM
M  V30 1 F 10.0262 -4.1339 0.0 0
M  V30 2 C 9.5262 -5.0 0.0 0
M  V30 3 F 10.3923 -5.5 0.0 0
M  V30 4 F 9.0262 -5.866 0.0 0
M  V30 5 C 8.6602 -4.5 0.0 0
M  V30 6 C 8.6602 -3.5 0.0 0
M  V30 7 C 7.7942 -5.0 0.0 0
M  V30 8 C 7.7942 -3.0 0.0 0
M  V30 9 C 6.9282 -4.4999 0.0 0
M  V30 10 O 7.7942 -2.0 0.0 0
M  V30 11 C 6.9282 -3.5 0.0 0
M  V30 12 C 6.9282 -1.5 0.0 0
M  V30 13 C 6.9282 -0.5 0.0 0
M  V30 14 C 6.0621 -2.0 0.0 0
M  V30 15 C 6.0621 0.0 0.0 0
M  V30 16 C 7.7942 0.0 0.0 0
M  V30 17 O 6.0621 -3.0 0.0 0
M  V30 18 C 5.1961 -1.5 0.0 0
M  V30 19 N 6.0621 0.9999 0.0 0
M  V30 20 C 5.1961 -0.5 0.0 0
M  V30 21 C 7.7942 0.9999 0.0 0
M  V30 22 C 8.6602 -0.5 0.0 0
M  V30 23 C 5.1961 -3.4999 0.0 0
M  V30 24 C 6.9282 1.4999 0.0 0
M  V30 25 N 4.3301 0.0 0.0 0
M  V30 26 O 6.9282 2.5 0.0 0
M  V30 27 C 3.4641 -0.5 0.0 0 CFG=2
M  V30 28 C 6.0621 3.0 0.0 0
M  V30 29 C 2.598 0.0 0.0 0
M  V30 30 C 3.4641 -1.5 0.0 0
M  V30 31 C 1.732 -0.5 0.0 0
M  V30 32 C 0.866 0.0 0.0 0
M  V30 33 N 0.0 -0.5 0.0 0
M  V30 END ATOM
M  V30 BEGIN BOND
M  V30 1 1 1 2
M  V30 2 1 2 3
M  V30 3 1 2 4
M  V30 4 1 2 5
M  V30 5 2 5 6
M  V30 6 1 5 7
M  V30 7 1 6 8
M  V30 8 2 7 9
M  V30 9 1 8 10
M  V30 10 2 8 11
M  V30 11 1 10 12
M  V30 12 1 12 13
M  V30 13 2 12 14
M  V30 14 1 13 15
M  V30 15 2 13 16
M  V30 16 1 14 17
M  V30 17 1 14 18
M  V30 18 2 15 19
M  V30 19 1 15 20
M  V30 20 1 16 21
M  V30 21 1 16 22
M  V30 22 1 17 23
M  V30 23 1 19 24
M  V30 24 1 20 25
M  V30 25 1 24 26
M  V30 26 1 27 25 CFG=1
M  V30 27 1 26 28
M  V30 28 1 27 29
M  V30 29 1 27 30
M  V30 30 1 29 31
M  V30 31 1 31 32
M  V30 32 1 32 33
M  V30 33 1 9 11
M  V30 34 2 18 20
M  V30 35 2 21 24
M  V30 END BOND
M  V30 BEGIN COLLECTION
M  V30 MDLV30/STERAC1 ATOMS=(1 27)
M  V30 END COLLECTION
M  V30 END CTAB
M  END
>  <Molecule Name>


>  <status>
-

>  <cas>
106635-80-7

>  <name>
TAFENOQUINE

>  <ID>
1908

>  <Smiles>
CC(CCCN)Nc(c1nc(OC)cc(C)c11)cc(OC)c1Oc1cccc(C(F)(F)F)c1

$$$$

Actelion Java MolfileCreator 2.0

  0  0  0  0  0  0              0 V3000
M  V30 BEGIN CTAB
M  V30 COUNTS 44 48 0 0 0
M  V30 BEGIN ATOM
M  V30 1 O 6.0621 3.0 0.0 0
M  V30 2 C 6.9282 2.4999 0.0 0
M  V30 3 O 6.9282 1.4999 0.0 0
M  V30 4 N 7.7942 2.9999 0.0 0
M  V30 5 C 6.0621 0.9999 0.0 0
M  V30 6 C 7.7942 3.9999 0.0 0
M  V30 7 C 5.1961 1.4999 0.0 0
M  V30 8 C 6.0621 0.0 0.0 0
M  V30 9 C 8.6602 4.4999 0.0 0
M  V30 10 C 6.9282 4.4999 0.0 0
M  V30 11 C 4.3301 0.9999 0.0 0
M  V30 12 C 5.1961 -0.5 0.0 0
M  V30 13 C 9.5262 3.9999 0.0 0
M  V30 14 C 8.6602 5.4999 0.0 0
M  V30 15 C 6.9282 5.4999 0.0 0
M  V30 16 N 4.3301 0.0 0.0 0
M  V30 17 C 9.5262 2.9999 0.0 0
M  V30 18 C 10.3923 4.4999 0.0 0
M  V30 19 C 7.7942 5.9999 0.0 0
M  V30 20 C 3.4641 -0.5 0.0 0
M  V30 21 C 10.3923 2.4999 0.0 0
M  V30 22 C 11.2583 3.9999 0.0 0
M  V30 23 C 2.598 0.0 0.0 0
M  V30 24 C 11.2583 2.9999 0.0 0
M  V30 25 N 1.732 -0.5 0.0 0
M  V30 26 C 0.866 0.0 0.0 0
M  V30 27 C 1.732 -1.5 0.0 0
M  V30 28 O 0.866 1.0 0.0 0
M  V30 29 C 0.0 -0.5 0.0 0
M  V30 30 C -0.866 0.0 0.0 0
M  V30 31 C 0.0 -1.4999 0.0 0
M  V30 32 C -1.732 -0.4999 0.0 0
M  V30 33 C -0.866 -1.9999 0.0 0
M  V30 34 C -1.732 -1.4999 0.0 0
M  V30 35 C -2.598 -1.9999 0.0 0
M  V30 36 N -2.598 -2.9999 0.0 0
M  V30 37 C -3.4641 -3.4999 0.0 0
M  V30 38 C -1.732 -3.4999 0.0 0
M  V30 39 C -3.4641 -4.4999 0.0 0
M  V30 40 C -1.732 -4.4999 0.0 0
M  V30 41 C -2.598 -4.9999 0.0 0
M  V30 42 C -2.598 -5.9999 0.0 0
M  V30 43 O -3.4641 -6.4999 0.0 0
M  V30 44 N -1.732 -6.4999 0.0 0
M  V30 END ATOM
M  V30 BEGIN BOND
M  V30 1 2 1 2
M  V30 2 1 2 3
M  V30 3 1 2 4
M  V30 4 1 3 5
M  V30 5 1 4 6
M  V30 6 1 5 7
M  V30 7 1 5 8
M  V30 8 2 6 9
M  V30 9 1 6 10
M  V30 10 1 7 11
M  V30 11 1 8 12
M  V30 12 1 9 13
M  V30 13 1 9 14
M  V30 14 2 10 15
M  V30 15 1 11 16
M  V30 16 2 13 17
M  V30 17 1 13 18
M  V30 18 2 14 19
M  V30 19 1 16 20
M  V30 20 1 17 21
M  V30 21 2 18 22
M  V30 22 1 20 23
M  V30 23 2 21 24
M  V30 24 1 23 25
M  V30 25 1 25 26
M  V30 26 1 25 27
M  V30 27 2 26 28
M  V30 28 1 26 29
M  V30 29 2 29 30
M  V30 30 1 29 31
M  V30 31 1 30 32
M  V30 32 2 31 33
M  V30 33 2 32 34
M  V30 34 1 34 35
M  V30 35 1 35 36
M  V30 36 1 36 37
M  V30 37 1 36 38
M  V30 38 1 37 39
M  V30 39 1 38 40
M  V30 40 1 39 41
M  V30 41 1 41 42
M  V30 42 2 42 43
M  V30 43 1 42 44
M  V30 44 1 12 16
M  V30 45 1 15 19
M  V30 46 1 22 24
M  V30 47 1 33 34
M  V30 48 1 40 41
M  V30 END BOND
M  V30 END CTAB
M  END
>  <Molecule Name>


>  <status>
-

>  <cas>
864750-70-9

>  <name>
REVEFENACIN

>  <ID>
1909

>  <Smiles>
CN(CCN(CC1)CCC1OC(Nc(cccc1)c1-c1ccccc1)=O)C(c1ccc(CN(CC2)CCC2C(N)=O)cc1)=O

$$$$

Actelion Java MolfileCreator 2.0

  0  0  0  0  0  0              0 V3000
M  V30 BEGIN CTAB
M  V30 COUNTS 44 48 0 0 0
M  V30 BEGIN ATOM
M  V30 1 O 6.0621 3.0 0.0 0
M  V30 2 C 6.9282 2.4999 0.0 0
M  V30 3 O 6.9282 1.4999 0.0 0
M  V30 4 N 7.7942 2.9999 0.0 0
M  V30 5 C 6.0621 0.9999 0.0 0
M  V30 6 C 7.7942 3.9999 0.0 0
M  V30 7 C 5.1961 1.4999 0.0 0
M  V30 8 C 6.0621 0.0 0.0 0
M  V30 9 C 8.6602 4.4999 0.0 0
M  V30 10 C 6.9282 4.4999 0.0 0
M  V30 11 C 4.3301 0.9999 0.0 0
M  V30 12 C 5.1961 -0.5 0.0 0
M  V30 13 C 9.5262 3.9999 0.0 0
M  V30 14 C 8.6602 5.4999 0.0 0
M  V30 15 C 6.9282 5.4999 0.0 0
M  V30 16 N 4.3301 0.0 0.0 0
M  V30 17 C 9.5262 2.9999 0.0 0
M  V30 18 C 10.3923 4.4999 0.0 0
M  V30 19 C 7.7942 5.9999 0.0 0
M  V30 20 C 3.4641 -0.5 0.0 0
M  V30 21 C 10.3923 2.4999 0.0 0
M  V30 22 C 11.2583 3.9999 0.0 0
M  V30 23 C 2.598 0.0 0.0 0
M  V30 24 C 11.2583 2.9999 0.0 0
M  V30 25 N 1.732 -0.5 0.0 0
M  V30 26 C 0.866 0.0 0.0 0
M  V30 27 C 1.732 -1.5 0.0 0
M  V30 28 O 0.866 1.0 0.0 0
M  V30 29 C 0.0 -0.5 0.0 0
M  V30 30 C -0.866 0.0 0.0 0
M  V30 31 C 0.0 -1.4999 0.0 0
M  V30 32 C -1.732 -0.4999 0.0 0
M  V30 33 C -0.866 -1.9999 0.0 0
M  V30 34 C -1.732 -1.4999 0.0 0
M  V30 35 C -2.598 -1.9999 0.0 0
M  V30 36 N -2.598 -2.9999 0.0 0
M  V30 37 C -3.4641 -3.4999 0.0 0
M  V30 38 C -1.732 -3.4999 0.0 0
M  V30 39 C -3.4641 -4.4999 0.0 0
M  V30 40 C -1.732 -4.4999 0.0 0
M  V30 41 C -2.598 -4.9999 0.0 0
M  V30 42 C -2.598 -5.9999 0.0 0
M  V30 43 O -3.4641 -6.4999 0.0 0
M  V30 44 O -1.732 -6.4999 0.0 0 CHG=-1
M  V30 END ATOM
M  V30 BEGIN BOND
M  V30 1 2 1 2
M  V30 2 1 2 3
M  V30 3 1 2 4
M  V30 4 1 3 5
M  V30 5 1 4 6
M  V30 6 1 5 7
M  V30 7 1 5 8
M  V30 8 2 6 9
M  V30 9 1 6 10
M  V30 10 1 7 11
M  V30 11 1 8 12
M  V30 12 1 9 13
M  V30 13 1 9 14
M  V30 14 2 10 15
M  V30 15 1 11 16
M  V30 16 2 13 17
M  V30 17 1 13 18
M  V30 18 2 14 19
M  V30 19 1 16 20
M  V30 20 1 17 21
M  V30 21 2 18 22
M  V30 22 1 20 23
M  V30 23 2 21 24
M  V30 24 1 23 25
M  V30 25 1 25 26
M  V30 26 1 25 27
M  V30 27 2 26 28
M  V30 28 1 26 29
M  V30 29 2 29 30
M  V30 30 1 29 31
M  V30 31 1 30 32
M  V30 32 2 31 33
M  V30 33 2 32 34
M  V30 34 1 34 35
M  V30 35 1 35 36
M  V30 36 1 36 37
M  V30 37 1 36 38
M  V30 38 1 37 39
M  V30 39 1 38 40
M  V30 40 1 39 41
M  V30 41 1 41 42
M  V30 42 2 42 43
M  V30 43 1 42 44
M  V30 44 1 12 16
M  V30 45 1 15 19
M  V30 46 1 22 24
M  V30 47 1 33 34
M  V30 48 1 40 41
M  V30 END BOND
M  V30 END CTAB
M  END
>  <Molecule Name>


>  <status>
-

>  <cas>
909800-36-8

>  <name>
M REVEFENACIN

>  <ID>
1910

>  <Smiles>
CN(CCN(CC1)CCC1OC(Nc(cccc1)c1-c1ccccc1)=O)C(c1ccc(CN(CC2)CCC2C([O-])=O)cc1)=O

$$$$

Actelion Java MolfileCreator 2.0

  0  0  0  0  0  0              0 V3000
M  V30 BEGIN CTAB
M  V30 COUNTS 28 31 0 0 0
M  V30 BEGIN ATOM
M  V30 1 O 2.598 -2.25 0.0 0
M  V30 2 C 2.598 -0.75 0.0 0
M  V30 3 N 3.8971 0.0 0.0 0
M  V30 4 N 1.299 0.0 0.0 0
M  V30 5 C 5.1961 -0.75 0.0 0
M  V30 6 C 0.0 -0.75 0.0 0 CFG=2
M  V30 7 C 5.1961 -2.25 0.0 0
M  V30 8 C 6.4951 0.0 0.0 0
M  V30 9 C -1.299 0.0 0.0 0
M  V30 10 C 0.0 -2.25 0.0 0
M  V30 11 C 6.4951 -3.0 0.0 0
M  V30 12 C 7.7942 -0.75 0.0 0
M  V30 13 C -2.598 -0.7499 0.0 0 CFG=2
M  V30 14 C -1.299 -2.9999 0.0 0
M  V30 15 C 7.7942 -2.25 0.0 0
M  V30 16 N -2.598 -2.2499 0.0 0
M  V30 17 C -3.8971 0.0 0.0 0
M  V30 18 C 9.0932 -3.0 0.0 0
M  V30 19 C -3.8971 -2.9999 0.0 0
M  V30 20 N -4.0539 1.4917 0.0 0
M  V30 21 N -5.2674 -0.6101 0.0 0
M  V30 22 N 10.3923 -3.75 0.0 0
M  V30 23 C -5.5211 1.8036 0.0 0
M  V30 24 C -6.2711 0.5046 0.0 0
M  V30 25 C -6.2711 3.1026 0.0 0
M  V30 26 C -7.7711 0.5046 0.0 0
M  V30 27 C -7.7711 3.1026 0.0 0
M  V30 28 C -8.5211 1.8036 0.0 0
M  V30 END ATOM
M  V30 BEGIN BOND
M  V30 1 2 1 2
M  V30 2 1 2 3
M  V30 3 1 2 4
M  V30 4 1 3 5
M  V30 5 1 6 4 CFG=1
M  V30 6 2 5 7
M  V30 7 1 5 8
M  V30 8 1 6 9
M  V30 9 1 6 10
M  V30 10 1 7 11
M  V30 11 2 8 12
M  V30 12 1 13 9
M  V30 13 1 10 14
M  V30 14 2 11 15
M  V30 15 1 13 16
M  V30 16 1 13 17 CFG=3
M  V30 17 1 15 18
M  V30 18 1 16 19
M  V30 19 2 17 20
M  V30 20 1 17 21
M  V30 21 3 18 22
M  V30 22 1 20 23
M  V30 23 1 21 24
M  V30 24 1 23 25
M  V30 25 1 24 26
M  V30 26 2 25 27
M  V30 27 2 26 28
M  V30 28 1 12 15
M  V30 29 1 14 16
M  V30 30 2 23 24
M  V30 31 1 27 28
M  V30 END BOND
M  V30 BEGIN COLLECTION
M  V30 MDLV30/STERAC1 ATOMS=(2 6 13)
M  V30 END COLLECTION
M  V30 END CTAB
M  END
>  <Molecule Name>


>  <status>
-

>  <cas>
1095173-27-5

>  <name>
GLASDEGIB

>  <ID>
1911

>  <Smiles>
CN(CC[C@@H](C1)NC(Nc(cc2)ccc2C#N)=O)[C@@H]1c1nc(cccc2)c2[nH]1

$$$$

Actelion Java MolfileCreator 2.0

  0  0  0  0  0  0              0 V3000
M  V30 BEGIN CTAB
M  V30 COUNTS 29 31 0 0 0
M  V30 BEGIN ATOM
M  V30 1 Cl -0.866 3.0 0.0 0
M  V30 2 C 0.0 2.4999 0.0 0
M  V30 3 C 0.0 1.5 0.0 0
M  V30 4 C 0.866 2.9999 0.0 0
M  V30 5 C 0.866 0.9999 0.0 0
M  V30 6 C 1.732 2.4999 0.0 0
M  V30 7 O 0.866 0.0 0.0 0
M  V30 8 C 1.732 1.4999 0.0 0
M  V30 9 C 2.598 2.9999 0.0 0
M  V30 10 C 0.0 -0.5 0.0 0
M  V30 11 N 3.4641 3.4999 0.0 0
M  V30 12 C -0.866 0.0 0.0 0
M  V30 13 C 0.0 -1.4999 0.0 0
M  V30 14 O -0.866 1.0 0.0 0
M  V30 15 N -1.732 -0.4999 0.0 0
M  V30 16 C -0.866 -2.0 0.0 0
M  V30 17 C 0.866 -1.9999 0.0 0
M  V30 18 C -1.732 -1.5 0.0 0
M  V30 19 C -2.598 0.0 0.0 0
M  V30 20 F 1.366 -1.1339 0.0 0
M  V30 21 F 1.732 -2.4999 0.0 0
M  V30 22 F 0.366 -2.866 0.0 0
M  V30 23 C -3.4641 -0.4999 0.0 0
M  V30 24 N -4.3776 -0.0932 0.0 0
M  V30 25 N -3.5686 -1.4945 0.0 0
M  V30 26 N -5.0467 -0.8364 0.0 0
M  V30 27 C -4.5467 -1.7024 0.0 0
M  V30 28 C -2.8254 -2.1636 0.0 0
M  V30 29 O -4.9535 -2.6159 0.0 0
M  V30 END ATOM
M  V30 BEGIN BOND
M  V30 1 1 1 2
M  V30 2 2 2 3
M  V30 3 1 2 4
M  V30 4 1 3 5
M  V30 5 2 4 6
M  V30 6 1 5 7
M  V30 7 2 5 8
M  V30 8 1 6 9
M  V30 9 1 7 10
M  V30 10 3 9 11
M  V30 11 1 10 12
M  V30 12 2 10 13
M  V30 13 2 12 14
M  V30 14 1 12 15
M  V30 15 1 13 16
M  V30 16 1 13 17
M  V30 17 1 15 18
M  V30 18 1 15 19
M  V30 19 1 17 20
M  V30 20 1 17 21
M  V30 21 1 17 22
M  V30 22 1 19 23
M  V30 23 2 23 24
M  V30 24 1 23 25
M  V30 25 1 24 26
M  V30 26 1 25 27
M  V30 27 1 25 28
M  V30 28 2 27 29
M  V30 29 1 6 8
M  V30 30 2 16 18
M  V30 31 1 26 27
M  V30 END BOND
M  V30 END CTAB
M  END
>  <Molecule Name>


>  <status>
-

>  <cas>
1338225-97-0

>  <name>
DORAVIRINE

>  <ID>
1912

>  <Smiles>
CN(C(CN(C=CC(C(F)(F)F)=C1Oc2cc(C#N)cc(Cl)c2)C1=O)=NN1)C1=O

$$$$

Actelion Java MolfileCreator 2.0

  0  0  0  0  0  0              0 V3000
M  V30 BEGIN CTAB
M  V30 COUNTS 40 45 0 0 0
M  V30 BEGIN ATOM
M  V30 1 S 9.0753 -4.1623 0.0 0
M  V30 2 C 8.71 -3.2314 0.0 0
M  V30 3 C 8.5753 -5.0283 0.0 0
M  V30 4 C 7.7544 -2.9366 0.0 0
M  V30 5 C 9.443 -2.5512 0.0 0
M  V30 6 C 7.5865 -5.1773 0.0 0
M  V30 7 C 7.5319 -1.9617 0.0 0
M  V30 8 C 6.9282 -3.5 0.0 0 CFG=2
M  V30 9 C 9.2205 -1.5763 0.0 0
M  V30 10 C 7.364 -6.1523 0.0 0
M  V30 11 C 6.8534 -4.4972 0.0 0
M  V30 12 C 8.2649 -1.2815 0.0 0
M  V30 13 N 6.0621 -3.0 0.0 0
M  V30 14 F 8.097 -6.8324 0.0 0
M  V30 15 C 6.4084 -6.447 0.0 0
M  V30 16 C 5.8979 -4.7919 0.0 0
M  V30 17 N 6.0621 -2.0 0.0 0
M  V30 18 C 5.1961 -3.5 0.0 0 CFG=1
M  V30 19 F 6.1859 -7.4219 0.0 0
M  V30 20 C 5.6753 -5.7668 0.0 0
M  V30 21 C 5.1961 -1.5 0.0 0
M  V30 22 C 6.9282 -1.5 0.0 0
M  V30 23 N 4.3301 -2.9999 0.0 0
M  V30 24 C 5.1961 -4.4999 0.0 0
M  V30 25 C 4.3301 -2.0 0.0 0
M  V30 26 C 5.1961 -0.5 0.0 0
M  V30 27 C 6.9282 -0.5 0.0 0
M  V30 28 C 3.4641 -3.5 0.0 0
M  V30 29 O 4.3301 -5.0 0.0 0
M  V30 30 O 3.4641 -1.4999 0.0 0
M  V30 31 O 4.3301 0.0 0.0 0
M  V30 32 C 6.0621 0.0 0.0 0
M  V30 33 C 3.4641 -4.5 0.0 0
M  V30 34 C 3.4641 -0.5 0.0 0
M  V30 35 O 6.0621 0.9999 0.0 0
M  V30 36 O 2.598 0.0 0.0 0
M  V30 37 C 1.732 -0.5 0.0 0
M  V30 38 O 1.732 -1.5 0.0 0
M  V30 39 O 0.866 0.0 0.0 0
M  V30 40 C 0.0 -0.5 0.0 0
M  V30 END ATOM
M  V30 BEGIN BOND
M  V30 1 1 1 2
M  V30 2 1 1 3
M  V30 3 2 2 4
M  V30 4 1 2 5
M  V30 5 1 3 6
M  V30 6 1 4 7
M  V30 7 1 8 4
M  V30 8 2 5 9
M  V30 9 2 6 10
M  V30 10 1 6 11
M  V30 11 2 7 12
M  V30 12 1 8 13 CFG=3
M  V30 13 1 10 14
M  V30 14 1 10 15
M  V30 15 2 11 16
M  V30 16 1 13 17
M  V30 17 1 18 13 CFG=3
M  V30 18 1 15 19
M  V30 19 2 15 20
M  V30 20 1 17 21
M  V30 21 1 17 22
M  V30 22 1 18 23
M  V30 23 1 18 24
M  V30 24 1 21 25
M  V30 25 2 21 26
M  V30 26 2 22 27
M  V30 27 1 23 28
M  V30 28 1 24 29
M  V30 29 2 25 30
M  V30 30 1 26 31
M  V30 31 1 26 32
M  V30 32 1 28 33
M  V30 33 1 31 34
M  V30 34 2 32 35
M  V30 35 1 34 36
M  V30 36 1 36 37
M  V30 37 2 37 38
M  V30 38 1 37 39
M  V30 39 1 39 40
M  V30 40 1 8 11
M  V30 41 1 9 12
M  V30 42 1 16 20
M  V30 43 1 23 25
M  V30 44 1 27 32
M  V30 45 1 29 33
M  V30 END BOND
M  V30 BEGIN COLLECTION
M  V30 MDLV30/STERAC1 ATOMS=(2 8 18)
M  V30 END COLLECTION
M  V30 END CTAB
M  END
>  <Molecule Name>


>  <status>
-

>  <cas>
1985606-14-1

>  <name>
BALOXAVIR MARBOXIL

>  <ID>
1913

>  <Smiles>
COC(OCOC(C(C=C1)=O)=C(C(N2[C@H]3COCC2)=O)N1N3[C@@H](c1ccc2F)c(cccc3)c3SCc1c2F)=O

$$$$

Actelion Java MolfileCreator 2.0

  0  0  0  0  0  0              0 V3000
M  V30 BEGIN CTAB
M  V30 COUNTS 34 39 0 0 0
M  V30 BEGIN ATOM
M  V30 1 S -0.0648 1.3653 0.0 0
M  V30 2 C 0.866 1.0 0.0 0
M  V30 3 C -0.3596 2.3209 0.0 0
M  V30 4 C 1.732 1.5 0.0 0
M  V30 5 C 0.866 0.0 0.0 0
M  V30 6 C 0.2037 3.1471 0.0 0
M  V30 7 C 2.598 0.9999 0.0 0
M  V30 8 C 1.881 2.4888 0.0 0 CFG=2
M  V30 9 C 1.732 -0.4999 0.0 0
M  V30 10 C -0.3596 3.9733 0.0 0
M  V30 11 C 1.2009 3.2218 0.0 0
M  V30 12 C 2.598 0.0 0.0 0
M  V30 13 N 2.8366 2.7835 0.0 0
M  V30 14 F -1.3568 3.8986 0.0 0
M  V30 15 C 0.0742 4.8743 0.0 0
M  V30 16 C 1.6348 4.1228 0.0 0
M  V30 17 N 3.5697 2.1034 0.0 0
M  V30 18 C 3.0591 3.7585 0.0 0 CFG=1
M  V30 19 F -0.489 5.7005 0.0 0
M  V30 20 C 1.0714 4.949 0.0 0
M  V30 21 C 4.5252 2.3981 0.0 0
M  V30 22 C 3.3471 1.1284 0.0 0
M  V30 23 N 4.0147 4.0532 0.0 0
M  V30 24 C 2.3261 4.4386 0.0 0
M  V30 25 C 4.7478 3.373 0.0 0
M  V30 26 C 5.2583 1.7179 0.0 0
M  V30 27 C 4.0802 0.4483 0.0 0
M  V30 28 C 4.2372 5.0281 0.0 0
M  V30 29 O 2.5486 5.4136 0.0 0
M  V30 30 O 5.7033 3.6678 0.0 0
M  V30 31 O 6.2139 2.0127 0.0 0
M  V30 32 C 5.0358 0.743 0.0 0
M  V30 33 C 3.5042 5.7083 0.0 0
M  V30 34 O 5.7688 0.0628 0.0 0
M  V30 END ATOM
M  V30 BEGIN BOND
M  V30 1 1 1 2
M  V30 2 1 1 3
M  V30 3 2 2 4
M  V30 4 1 2 5
M  V30 5 1 3 6
M  V30 6 1 4 7
M  V30 7 1 8 4
M  V30 8 2 5 9
M  V30 9 2 6 10
M  V30 10 1 6 11
M  V30 11 2 7 12
M  V30 12 1 8 13 CFG=3
M  V30 13 1 10 14
M  V30 14 1 10 15
M  V30 15 2 11 16
M  V30 16 1 13 17
M  V30 17 1 18 13 CFG=3
M  V30 18 1 15 19
M  V30 19 2 15 20
M  V30 20 1 17 21
M  V30 21 1 17 22
M  V30 22 1 18 23
M  V30 23 1 18 24
M  V30 24 1 21 25
M  V30 25 2 21 26
M  V30 26 2 22 27
M  V30 27 1 23 28
M  V30 28 1 24 29
M  V30 29 2 25 30
M  V30 30 1 26 31
M  V30 31 1 26 32
M  V30 32 1 28 33
M  V30 33 2 32 34
M  V30 34 1 8 11
M  V30 35 1 9 12
M  V30 36 1 16 20
M  V30 37 1 23 25
M  V30 38 1 27 32
M  V30 39 1 29 33
M  V30 END BOND
M  V30 BEGIN COLLECTION
M  V30 MDLV30/STERAC1 ATOMS=(2 8 18)
M  V30 END COLLECTION
M  V30 END CTAB
M  END
>  <Molecule Name>


>  <status>
-

>  <cas>
1985605-59-1

>  <name>
BALOXAVIR

>  <ID>
1914

>  <Smiles>
OC(C(C=C1)=O)=C(C(N2[C@H]3COCC2)=O)N1N3[C@@H](c1ccc2F)c(cccc3)c3SCc1c2F

$$$$

Actelion Java MolfileCreator 2.0

  0  0  0  0  0  0              0 V3000
M  V30 BEGIN CTAB
M  V30 COUNTS 31 35 0 0 0
M  V30 BEGIN ATOM
M  V30 1 F 3.52 -5.0578 0.0 0
M  V30 2 C 3.02 -4.1918 0.0 0
M  V30 3 C 3.52 -3.3257 0.0 0
M  V30 4 C 2.02 -4.1918 0.0 0
M  V30 5 C 3.02 -2.4597 0.0 0
M  V30 6 C 4.52 -3.3257 0.0 0 CFG=1
M  V30 7 C 1.52 -3.3257 0.0 0
M  V30 8 C 2.02 -2.4597 0.0 0
M  V30 9 N 5.1078 -2.5167 0.0 0
M  V30 10 C 5.1078 -4.1347 0.0 0
M  V30 11 F 1.52 -1.5937 0.0 0
M  V30 12 C 4.7987 -1.5657 0.0 0
M  V30 13 C 6.0588 -2.8257 0.0 0
M  V30 14 C 6.0588 -3.8257 0.0 0
M  V30 15 N 3.8206 -1.3577 0.0 0
M  V30 16 C 5.4679 -0.8225 0.0 0
M  V30 17 C 3.5116 -0.4067 0.0 0
M  V30 18 C 5.1588 0.1284 0.0 0
M  V30 19 N 4.1807 0.3364 0.0 0
M  V30 20 C 2.598 0.0 0.0 0
M  V30 21 N 3.6807 1.2024 0.0 0
M  V30 22 N 1.732 -0.5 0.0 0
M  V30 23 C 2.7026 0.9945 0.0 0
M  V30 24 C 0.866 0.0 0.0 0
M  V30 25 O 0.866 1.0 0.0 0
M  V30 26 N 0.0 -0.5 0.0 0
M  V30 27 C -0.9135 -0.0932 0.0 0
M  V30 28 C -0.1045 -1.4945 0.0 0
M  V30 29 C -1.5826 -0.8364 0.0 0 CFG=1
M  V30 30 C -1.0826 -1.7024 0.0 0
M  V30 31 O -2.5771 -0.7318 0.0 0
M  V30 END ATOM
M  V30 BEGIN BOND
M  V30 1 1 1 2
M  V30 2 2 2 3
M  V30 3 1 2 4
M  V30 4 1 3 5
M  V30 5 1 6 3 CFG=1
M  V30 6 2 4 7
M  V30 7 2 5 8
M  V30 8 1 6 9
M  V30 9 1 6 10
M  V30 10 1 8 11
M  V30 11 1 9 12
M  V30 12 1 9 13
M  V30 13 1 10 14
M  V30 14 2 12 15
M  V30 15 1 12 16
M  V30 16 1 15 17
M  V30 17 2 16 18
M  V30 18 1 17 19
M  V30 19 2 17 20
M  V30 20 1 19 21
M  V30 21 1 20 22
M  V30 22 1 20 23
M  V30 23 1 22 24
M  V30 24 2 24 25
M  V30 25 1 24 26
M  V30 26 1 26 27
M  V30 27 1 26 28
M  V30 28 1 29 27
M  V30 29 1 28 30
M  V30 30 1 29 31 CFG=1
M  V30 31 1 7 8
M  V30 32 1 13 14
M  V30 33 1 18 19
M  V30 34 2 21 23
M  V30 35 1 29 30
M  V30 END BOND
M  V30 BEGIN COLLECTION
M  V30 MDLV30/STERAC1 ATOMS=(2 6 29)
M  V30 END COLLECTION
M  V30 END CTAB
M  END
>  <Molecule Name>


>  <status>
-

>  <cas>
1223403-58-4

>  <name>
LAROTRECTINIB

>  <ID>
1915

>  <Smiles>
O[C@H](CC1)CN1C(Nc(cnn1cc2)c1nc2N(CCC1)[C@@H]1c(cc(cc1)F)c1F)=O

$$$$

Actelion Java MolfileCreator 2.0

  0  0  0  0  0  0              0 V3000
M  V30 BEGIN CTAB
M  V30 COUNTS 46 50 0 0 0
M  V30 BEGIN ATOM
M  V30 1 O 6.5286 2.9775 0.0 0
M  V30 2 C 7.8132 3.7591 0.0 0
M  V30 3 O 9.1154 3.0073 0.0 0
M  V30 4 C 7.7417 5.3095 0.0 0 CFG=2
M  V30 5 C 9.1154 1.5036 0.0 0 CFG=2
M  V30 6 C 6.5253 6.1933 0.0 0
M  V30 7 C 9.1154 5.9211 0.0 0 CFG=2
M  V30 8 C 7.8132 0.7518 0.0 0
M  V30 9 C 10.4176 0.7518 0.0 0
M  V30 10 C 6.6824 7.6888 0.0 0
M  V30 11 O 9.1154 4.4174 0.0 0
M  V30 12 C 10.4891 5.3095 0.0 0
M  V30 13 C 9.2726 7.4165 0.0 0 CFG=1
M  V30 14 C 7.8132 -0.7518 0.0 0 CFG=1
M  V30 15 C 10.4176 -0.7518 0.0 0 CFG=2
M  V30 16 C 8.0561 8.3004 0.0 0 CFG=2
M  V30 17 C 5.4659 8.5726 0.0 0
M  V30 18 C 11.7757 5.9541 0.0 0
M  V30 19 C 11.4277 6.5509 0.0 0
M  V30 20 O 10.7434 7.7292 0.0 0
M  V30 21 O 6.511 0.0 0.0 0
M  V30 22 O 9.1154 -1.5036 0.0 0
M  V30 23 C 7.8132 -2.2554 0.0 0
M  V30 24 C 11.7198 -1.5036 0.0 0
M  V30 25 O 8.2133 9.7958 0.0 0
M  V30 26 C 13.022 5.2628 0.0 0
M  V30 27 C 5.2088 -0.7518 0.0 0 CFG=2
M  V30 28 C 6.511 -3.0073 0.0 0
M  V30 29 C 13.022 -0.7518 0.0 0
M  V30 30 C 13.022 3.7591 0.0 0
M  V30 31 C 3.9066 0.0 0.0 0
M  V30 32 C 5.2088 -2.2554 0.0 0 CFG=2
M  V30 33 N 6.511 -4.5109 0.0 0
M  V30 34 C 13.022 0.7518 0.0 0
M  V30 35 C 14.3242 3.0073 0.0 0 CFG=1
M  V30 36 C 2.6044 -0.7518 0.0 0
M  V30 37 C 3.9066 1.5036 0.0 0
M  V30 38 C 3.9066 -3.0073 0.0 0
M  V30 39 O 7.8132 -5.2628 0.0 0
M  V30 40 C 14.3242 1.5036 0.0 0
M  V30 41 C 11.7198 1.5036 0.0 0
M  V30 42 C 15.6265 3.7591 0.0 0
M  V30 43 C 1.3022 0.0 0.0 0
M  V30 44 C 7.8132 -6.7664 0.0 0
M  V30 45 C 1.3022 1.5036 0.0 0
M  V30 46 C 0.0 -0.7518 0.0 0
M  V30 END ATOM
M  V30 BEGIN BOND
M  V30 1 2 1 2
M  V30 2 1 2 3
M  V30 3 1 4 2
M  V30 4 1 5 3 CFG=1
M  V30 5 1 4 6 CFG=3
M  V30 6 1 7 4
M  V30 7 1 5 8
M  V30 8 1 5 9
M  V30 9 2 6 10
M  V30 10 1 7 11 CFG=3
M  V30 11 1 7 12
M  V30 12 1 13 7
M  V30 13 1 14 8
M  V30 14 1 15 9
M  V30 15 1 16 10
M  V30 16 1 10 17
M  V30 17 2 12 18
M  V30 18 1 12 19
M  V30 19 1 13 20 CFG=1
M  V30 20 1 14 21 CFG=3
M  V30 21 1 14 22
M  V30 22 1 14 23
M  V30 23 1 15 24
M  V30 24 1 16 25 CFG=1
M  V30 25 1 18 26
M  V30 26 1 27 21
M  V30 27 1 23 28
M  V30 28 1 24 29
M  V30 29 2 26 30
M  V30 30 1 27 31 CFG=1
M  V30 31 1 32 27
M  V30 32 2 28 33
M  V30 33 2 29 34
M  V30 34 1 35 30
M  V30 35 2 31 36
M  V30 36 1 31 37
M  V30 37 1 32 38 CFG=3
M  V30 38 1 33 39
M  V30 39 1 34 40
M  V30 40 1 34 41
M  V30 41 1 35 42 CFG=3
M  V30 42 1 36 43
M  V30 43 1 39 44
M  V30 44 1 43 45
M  V30 45 1 43 46
M  V30 46 1 13 16
M  V30 47 1 15 22 CFG=1
M  V30 48 1 19 20
M  V30 49 1 28 32
M  V30 50 1 35 40
M  V30 END BOND
M  V30 BEGIN COLLECTION
M  V30 MDLV30/STERAC1 ATOMS=(10 4 5 7 13 14 15 16 27 32 35)
M  V30 END COLLECTION
M  V30 END CTAB
M  END
>  <Molecule Name>


>  <status>
-

>  <cas>
113507-06-5

>  <name>
MOXIDECTIN

>  <ID>
1916

>  <Smiles>
CC(C)/C=C(\C)/[C@H]([C@@H](C)/C(/C1)=N/OC)O[C@]1(C[C@H](C1)OC([C@@H]2C=C(C)[C@H]([C@H]3OC4)O)=O)O[C@@H]1C/C=C(\C)/C[C@@H](C)/C=C/C=C4\[C@@]23O

$$$$

Actelion Java MolfileCreator 2.0

  0  0  0  0  0  0              0 V3000
M  V30 BEGIN CTAB
M  V30 COUNTS 30 33 0 0 0
M  V30 BEGIN ATOM
M  V30 1 F 3.1603 1.7843 0.0 0
M  V30 2 C 3.8937 3.1212 0.0 0
M  V30 3 C 5.1766 3.1048 0.0 0
M  V30 4 C 2.6877 4.6089 0.0 0
M  V30 5 C 5.9271 4.4047 0.0 0
M  V30 6 C 3.4386 5.4809 0.0 0
M  V30 7 C 5.1766 5.7047 0.0 0
M  V30 8 C 7.4282 4.4047 0.0 0 CFG=1
M  V30 9 C 3.7349 5.9161 0.0 0
M  V30 10 O 8.1787 3.1048 0.0 0
M  V30 11 C 8.1787 5.7047 0.0 0
M  V30 12 O 2.925 7.0046 0.0 0
M  V30 13 N 3.1429 4.4428 0.0 0
M  V30 14 C 7.4282 1.8049 0.0 0
M  V30 15 C 3.3633 3.0814 0.0 0
M  V30 16 C 1.424 4.4047 0.0 0
M  V30 17 C 8.1787 0.5049 0.0 0
M  V30 18 C 5.9271 1.8049 0.0 0
M  V30 19 C 2.6688 1.8273 0.0 0
M  V30 20 N 7.4282 -0.7949 0.0 0
M  V30 21 N 9.6797 0.5049 0.0 0
M  V30 22 C 5.1766 0.5049 0.0 0
M  V30 23 N 1.4568 1.4928 0.0 0
M  V30 24 C 3.6756 0.5049 0.0 0
M  V30 25 C 5.9271 -0.7949 0.0 0
M  V30 26 N 1.2999 0.0 0.0 0
M  V30 27 C 2.6712 -0.6105 0.0 0
M  V30 28 C 0.0 -0.7505 0.0 0
M  V30 29 C 2.9832 -2.0787 0.0 0
M  V30 30 N 3.2953 -3.547 0.0 0
M  V30 END ATOM
M  V30 BEGIN BOND
M  V30 1 1 1 2
M  V30 2 2 2 3
M  V30 3 1 2 4
M  V30 4 1 3 5
M  V30 5 2 4 6
M  V30 6 2 5 7
M  V30 7 1 8 5
M  V30 8 1 7 9
M  V30 9 1 8 10
M  V30 10 1 8 11 CFG=3
M  V30 11 2 9 12
M  V30 12 1 9 13
M  V30 13 1 10 14
M  V30 14 1 13 15
M  V30 15 1 13 16
M  V30 16 2 14 17
M  V30 17 1 14 18
M  V30 18 1 15 19
M  V30 19 1 17 20
M  V30 20 1 17 21
M  V30 21 2 18 22
M  V30 22 2 19 23
M  V30 23 1 19 24
M  V30 24 2 20 25
M  V30 25 1 23 26
M  V30 26 2 24 27
M  V30 27 1 26 28
M  V30 28 1 27 29
M  V30 29 3 29 30
M  V30 30 1 6 7
M  V30 31 1 22 24
M  V30 32 1 22 25
M  V30 33 1 26 27
M  V30 END BOND
M  V30 BEGIN COLLECTION
M  V30 MDLV30/STERAC1 ATOMS=(1 8)
M  V30 END COLLECTION
M  V30 END CTAB
M  END
>  <Molecule Name>


>  <status>
-

>  <cas>
1454846-35-5

>  <name>
LORLATINIB

>  <ID>
1917

>  <Smiles>
CC(c(cc(cc1)F)c1C(N(C)Cc1nn(C)c(C#N)c1-1)=O)Oc2c(N)ncc1c2

$$$$

Actelion Java MolfileCreator 2.0

  0  0  0  0  0  0              0 V3000
M  V30 BEGIN CTAB
M  V30 COUNTS 50 53 0 0 0
M  V30 BEGIN ATOM
M  V30 1 O 10.7461 1.9153 0.0 0
M  V30 2 C 9.7461 1.9153 0.0 0
M  V30 3 N 9.6156 2.9067 0.0 0
M  V30 4 C 9.6156 0.9238 0.0 0
M  V30 5 C 8.6353 3.8772 0.0 0
M  V30 6 C 9.2329 0.0 0.0 0
M  V30 7 C 10.5815 0.665 0.0 0
M  V30 8 C 8.6639 4.8768 0.0 0
M  V30 9 C 7.7554 3.4021 0.0 0
M  V30 10 C 8.6241 -0.7933 0.0 0
M  V30 11 O 9.5662 5.3078 0.0 0
M  V30 12 C 7.6007 5.6864 0.0 0
M  V30 13 C 6.904 3.9266 0.0 0
M  V30 14 C 7.7003 -1.176 0.0 0
M  V30 15 C 7.4618 6.6767 0.0 0
M  V30 16 C 6.8125 5.0709 0.0 0
M  V30 17 O 6.0511 3.4046 0.0 0
M  V30 18 C 6.9069 -1.7847 0.0 0 CFG=2
M  V30 19 O 8.25 7.2922 0.0 0
M  V30 20 C 6.5347 7.0515 0.0 0
M  V30 21 C 5.8855 5.4458 0.0 0
M  V30 22 C 5.9155 -1.9153 0.0 0 CFG=1
M  V30 23 C 7.2896 -2.7086 0.0 0
M  V30 24 C 5.7465 6.4361 0.0 0
M  V30 25 C 6.3958 8.0418 0.0 0
M  V30 26 C 4.9865 5.0076 0.0 0
M  V30 27 O 5.9155 -2.9153 0.0 0
M  V30 28 C 4.924 -1.7847 0.0 0 CFG=1
M  V30 29 O 4.7618 6.61 0.0 0
M  V30 30 O 4.8127 4.0229 0.0 0
M  V30 31 C 4.2921 5.7271 0.0 0 CFG=1
M  V30 32 C 4.0001 -1.4021 0.0 0 CFG=2
M  V30 33 C 4.6652 -2.7507 0.0 0
M  V30 34 O 3.2068 4.624 0.0 0
M  V30 35 C 3.4859 6.3188 0.0 0
M  V30 36 O 3.5001 -2.2681 0.0 0
M  V30 37 C 3.2068 -0.7933 0.0 0 CFG=1
M  V30 38 C 2.8241 3.7001 0.0 0
M  V30 39 C 2.598 0.0 0.0 0 CFG=1
M  V30 40 C 2.4997 -1.5004 0.0 0
M  V30 41 C 2.2153 2.9067 0.0 0
M  V30 42 O 1.732 -0.5 0.0 0
M  V30 43 C 2.2153 0.9238 0.0 0 CFG=2
M  V30 44 C 2.0848 1.9153 0.0 0 CFG=2
M  V30 45 C 0.866 0.0 0.0 0
M  V30 46 C 1.2873 0.6813 0.0 0
M  V30 47 O 1.0848 1.9153 0.0 0
M  V30 48 O 0.866 1.0 0.0 0
M  V30 49 C 0.0 -0.5 0.0 0
M  V30 50 C 0.5848 2.7813 0.0 0
M  V30 END ATOM
M  V30 BEGIN BOND
M  V30 1 2 1 2
M  V30 2 1 2 3
M  V30 3 1 2 4
M  V30 4 1 3 5
M  V30 5 2 4 6
M  V30 6 1 4 7
M  V30 7 2 5 8
M  V30 8 1 5 9
M  V30 9 1 6 10
M  V30 10 1 8 11
M  V30 11 1 8 12
M  V30 12 2 9 13
M  V30 13 2 10 14
M  V30 14 2 12 15
M  V30 15 1 12 16
M  V30 16 1 13 17
M  V30 17 1 18 14
M  V30 18 1 15 19
M  V30 19 1 15 20
M  V30 20 2 16 21
M  V30 21 1 22 18
M  V30 22 1 18 23 CFG=1
M  V30 23 2 20 24
M  V30 24 1 20 25
M  V30 25 1 21 26
M  V30 26 1 22 27 CFG=1
M  V30 27 1 28 22
M  V30 28 1 24 29
M  V30 29 2 26 30
M  V30 30 1 31 26
M  V30 31 1 32 28
M  V30 32 1 28 33 CFG=3
M  V30 33 1 31 34
M  V30 34 1 31 35 CFG=1
M  V30 35 1 32 36 CFG=3
M  V30 36 1 37 32
M  V30 37 1 34 38
M  V30 38 1 39 37
M  V30 39 1 37 40 CFG=3
M  V30 40 2 38 41
M  V30 41 1 39 42 CFG=1
M  V30 42 1 43 39
M  V30 43 1 44 41
M  V30 44 1 42 45
M  V30 45 1 43 46 CFG=1
M  V30 46 1 44 47 CFG=3
M  V30 47 2 45 48
M  V30 48 1 45 49
M  V30 49 1 47 50
M  V30 50 1 13 16
M  V30 51 1 21 24
M  V30 52 1 29 31
M  V30 53 1 43 44
M  V30 END BOND
M  V30 BEGIN COLLECTION
M  V30 MDLV30/STERAC1 ATOMS=(9 18 22 28 31 32 37 39 43 44)
M  V30 END COLLECTION
M  V30 END CTAB
M  END
>  <Molecule Name>


>  <status>
-

>  <cas>
6998-60-3

>  <name>
RIFAMYCIN

>  <ID>
1918

>  <Smiles>
C[C@H]([C@@H]([C@H](C)[C@H]([C@@H](C)[C@@H](/C=C/O[C@@](C)(C(c1c2c(O)c3)=O)Oc1c(C)c(O)c2c(O)c3NC(/C(/C)=C\C=C\[C@H]1C)=O)OC)OC(C)=O)O)[C@@H]1O

$$$$

Actelion Java MolfileCreator 2.0

  0  0  0  0  0  0              0 V3000
M  V30 BEGIN CTAB
M  V30 COUNTS 39 41 0 0 0
M  V30 BEGIN ATOM
M  V30 1 Cl 15.3127 -2.7178 0.0 0
M  V30 2 C 14.9059 -1.8042 0.0 0
M  V30 3 C 15.4937 -0.9952 0.0 0
M  V30 4 C 13.9114 -1.6997 0.0 0
M  V30 5 C 15.087 -0.0817 0.0 0
M  V30 6 C 16.4883 -1.0997 0.0 0
M  V30 7 C 13.5047 -0.7861 0.0 0
M  V30 8 Cl 15.6748 0.7273 0.0 0
M  V30 9 C 14.0925 0.0228 0.0 0
M  V30 10 C 17.076 -0.2907 0.0 0
M  V30 11 C 12.5102 -0.6816 0.0 0
M  V30 12 C 18.0706 -0.3952 0.0 0
M  V30 13 C 16.6693 0.6227 0.0 0
M  V30 14 O 11.9224 -1.4906 0.0 0
M  V30 15 N 12.1034 0.2318 0.0 0
M  V30 16 O 18.4773 -1.3088 0.0 0
M  V30 17 O 18.6583 0.4137 0.0 0 CHG=-1
M  V30 18 C 11.1089 0.3364 0.0 0
M  V30 19 S 10.6089 1.2024 0.0 0
M  V30 20 N 10.4398 -0.4067 0.0 0
M  V30 21 C 9.6308 0.9945 0.0 0
M  V30 22 C 9.5262 0.0 0.0 0
M  V30 23 C 8.6602 -0.5 0.0 0
M  V30 24 C 7.7942 0.0 0.0 0
M  V30 25 C 8.6602 -1.5 0.0 0
M  V30 26 O 7.7942 0.9999 0.0 0
M  V30 27 C 6.9282 -0.5 0.0 0
M  V30 28 C 7.7942 -2.0 0.0 0
M  V30 29 C 6.9282 1.5 0.0 0
M  V30 30 C 6.9282 -1.5 0.0 0
M  V30 31 C 6.0621 0.0 0.0 0 CFG=1
M  V30 32 O 5.1961 -0.5 0.0 0
M  V30 33 C 6.0621 0.9999 0.0 0
M  V30 34 C 4.3301 0.0 0.0 0
M  V30 35 C 3.4641 -0.5 0.0 0
M  V30 36 C 2.598 0.0 0.0 0
M  V30 37 C 1.732 -0.5 0.0 0
M  V30 38 C 0.866 0.0 0.0 0
M  V30 39 C 0.0 -0.5 0.0 0
M  V30 END ATOM
M  V30 BEGIN BOND
M  V30 1 1 1 2
M  V30 2 2 2 3
M  V30 3 1 2 4
M  V30 4 1 3 5
M  V30 5 1 3 6
M  V30 6 2 4 7
M  V30 7 1 5 8
M  V30 8 2 5 9
M  V30 9 2 6 10
M  V30 10 1 7 11
M  V30 11 1 10 12
M  V30 12 1 10 13
M  V30 13 2 11 14
M  V30 14 1 11 15
M  V30 15 2 12 16
M  V30 16 1 12 17
M  V30 17 1 15 18
M  V30 18 1 18 19
M  V30 19 2 18 20
M  V30 20 1 19 21
M  V30 21 1 20 22
M  V30 22 1 22 23
M  V30 23 2 23 24
M  V30 24 1 23 25
M  V30 25 1 24 26
M  V30 26 1 24 27
M  V30 27 2 25 28
M  V30 28 1 26 29
M  V30 29 2 27 30
M  V30 30 1 31 27
M  V30 31 1 31 32 CFG=1
M  V30 32 1 31 33
M  V30 33 1 32 34
M  V30 34 1 34 35
M  V30 35 1 35 36
M  V30 36 1 36 37
M  V30 37 1 37 38
M  V30 38 1 38 39
M  V30 39 1 7 9
M  V30 40 2 21 22
M  V30 41 1 28 30
M  V30 END BOND
M  V30 BEGIN COLLECTION
M  V30 MDLV30/STERAC1 ATOMS=(1 31)
M  V30 END COLLECTION
M  V30 END CTAB
M  END
>  <Molecule Name>


>  <status>
-

>  <cas>
1110766-97-6

>  <name>
LUSUTROMBOPAG

>  <ID>
1919

>  <Smiles>
CCCCCCOC(C)c1cccc(-c2csc(NC(c3cc(Cl)c(/C=C(\C)/C([O-])=O)c(Cl)c3)=O)n2)c1OC

$$$$

Actelion Java MolfileCreator 2.0

  0  0  0  0  0  0              0 V3000
M  V30 BEGIN CTAB
M  V30 COUNTS 40 44 0 0 0
M  V30 BEGIN ATOM
M  V30 1 F 6.4951 -4.5 0.0 0
M  V30 2 C 6.4951 -3.0 0.0 0
M  V30 3 C 7.7942 -2.25 0.0 0
M  V30 4 C 5.1961 -2.25 0.0 0
M  V30 5 C 7.7942 -0.75 0.0 0
M  V30 6 C 9.0932 -3.0 0.0 0
M  V30 7 C 5.1961 -0.75 0.0 0
M  V30 8 C 9.0932 0.0 0.0 0
M  V30 9 C 6.4951 0.0 0.0 0
M  V30 10 C 10.3923 -2.25 0.0 0 CFG=1
M  V30 11 N 3.8971 0.0 0.0 0
M  V30 12 O 9.0932 1.5 0.0 0
M  V30 13 C 10.3923 -0.75 0.0 0
M  V30 14 O 6.4951 1.5 0.0 0
M  V30 15 C 11.6913 -2.9999 0.0 0
M  V30 16 C 2.598 -0.75 0.0 0
M  V30 17 C 11.6913 0.0 0.0 0
M  V30 18 C 12.9903 -2.2499 0.0 0 CFG=1
M  V30 19 O 2.598 -2.25 0.0 0
M  V30 20 C 1.299 0.0 0.0 0
M  V30 21 O 11.6913 1.4999 0.0 0
M  V30 22 C 12.9903 -0.75 0.0 0 CFG=1
M  V30 23 C 14.2894 -3.0 0.0 0 CFG=1
M  V30 24 N 0.0 -0.75 0.0 0
M  V30 25 O 12.9903 0.7499 0.0 0
M  V30 26 C 14.2894 0.0 0.0 0
M  V30 27 N 14.2894 -4.5 0.0 0
M  V30 28 C 15.5884 -2.25 0.0 0
M  V30 29 C -1.3703 -0.1398 0.0 0
M  V30 30 C -0.1567 -2.2417 0.0 0
M  V30 31 O 14.2894 1.5 0.0 0
M  V30 32 C 15.5884 -0.75 0.0 0
M  V30 33 C 12.9903 -5.25 0.0 0
M  V30 34 C 15.5884 -5.25 0.0 0
M  V30 35 O 16.8874 -3.0 0.0 0
M  V30 36 C -2.374 -1.2546 0.0 0
M  V30 37 C -1.624 -2.5536 0.0 0
M  V30 38 C 16.8874 0.0 0.0 0
M  V30 39 O 18.1865 -0.75 0.0 0
M  V30 40 N 16.8874 1.4999 0.0 0
M  V30 END ATOM
M  V30 BEGIN BOND
M  V30 1 1 1 2
M  V30 2 2 2 3
M  V30 3 1 2 4
M  V30 4 1 3 5
M  V30 5 1 3 6
M  V30 6 2 4 7
M  V30 7 1 5 8
M  V30 8 2 5 9
M  V30 9 1 10 6 CFG=1
M  V30 10 1 7 11
M  V30 11 2 8 12
M  V30 12 1 8 13
M  V30 13 1 9 14
M  V30 14 1 10 15
M  V30 15 1 11 16
M  V30 16 2 13 17
M  V30 17 1 18 15 CFG=1
M  V30 18 2 16 19
M  V30 19 1 16 20
M  V30 20 1 17 21
M  V30 21 1 22 17
M  V30 22 1 23 18
M  V30 23 1 20 24
M  V30 24 1 22 25 CFG=3
M  V30 25 1 22 26
M  V30 26 1 23 27 CFG=3
M  V30 27 1 23 28
M  V30 28 1 24 29
M  V30 29 1 24 30
M  V30 30 2 26 31
M  V30 31 1 26 32
M  V30 32 1 27 33
M  V30 33 1 27 34
M  V30 34 1 28 35
M  V30 35 1 29 36
M  V30 36 1 30 37
M  V30 37 1 32 38
M  V30 38 2 38 39
M  V30 39 1 38 40
M  V30 40 1 7 9
M  V30 41 1 10 13
M  V30 42 1 18 22
M  V30 43 2 28 32
M  V30 44 1 36 37
M  V30 END BOND
M  V30 BEGIN COLLECTION
M  V30 MDLV30/STERAC1 ATOMS=(4 10 18 22 23)
M  V30 END COLLECTION
M  V30 END CTAB
M  END
>  <Molecule Name>


>  <status>
-

>  <cas>
1207283-85-9

>  <name>
ERAVACYCLINE

>  <ID>
1920

>  <Smiles>
CN(C)[C@H]([C@@H](C[C@@H](Cc(c(C1=O)c(c(NC(CN2CCCC2)=O)c2)O)c2F)C1=C1O)[C@@]11O)C(O)=C(C(N)=O)C1=O

$$$$

Actelion Java MolfileCreator 2.0

  0  0  0  0  0  0              0 V3000
M  V30 BEGIN CTAB
M  V30 COUNTS 30 34 0 0 0
M  V30 BEGIN ATOM
M  V30 1 Cl 5.1961 2.4999 0.0 0
M  V30 2 C 5.1961 1.4999 0.0 0
M  V30 3 C 4.3301 0.9999 0.0 0
M  V30 4 C 6.0621 0.9999 0.0 0
M  V30 5 C 3.4641 1.4999 0.0 0
M  V30 6 C 4.3301 0.0 0.0 0
M  V30 7 C 6.0621 0.0 0.0 0
M  V30 8 O 3.4641 2.4999 0.0 0
M  V30 9 N 2.598 0.9999 0.0 0
M  V30 10 C 3.4641 -0.5 0.0 0
M  V30 11 C 5.1961 -0.5 0.0 0
M  V30 12 C 1.732 1.5 0.0 0
M  V30 13 C 2.598 0.0 0.0 0
M  V30 14 C 1.732 2.5 0.0 0
M  V30 15 C 0.866 1.0 0.0 0
M  V30 16 C 1.732 -0.5 0.0 0 CFG=1
M  V30 17 C 0.866 3.0 0.0 0
M  V30 18 C 0.0 1.5 0.0 0
M  V30 19 N 0.866 0.0 0.0 0
M  V30 20 C 1.732 -1.5 0.0 0
M  V30 21 C 0.0 2.5 0.0 0
M  V30 22 C 0.0 -0.5 0.0 0
M  V30 23 N 0.0 -1.5 0.0 0
M  V30 24 C -0.866 0.0 0.0 0
M  V30 25 C -0.866 -1.9999 0.0 0
M  V30 26 N -1.0739 0.9781 0.0 0
M  V30 27 C -1.732 -0.4999 0.0 0
M  V30 28 N -1.732 -1.4999 0.0 0
M  V30 29 C -2.0684 1.0826 0.0 0
M  V30 30 N -2.4751 0.1691 0.0 0
M  V30 END ATOM
M  V30 BEGIN BOND
M  V30 1 1 1 2
M  V30 2 2 2 3
M  V30 3 1 2 4
M  V30 4 1 3 5
M  V30 5 1 3 6
M  V30 6 2 4 7
M  V30 7 2 5 8
M  V30 8 1 5 9
M  V30 9 1 6 10
M  V30 10 2 6 11
M  V30 11 1 9 12
M  V30 12 1 9 13
M  V30 13 2 12 14
M  V30 14 1 12 15
M  V30 15 1 16 13
M  V30 16 1 14 17
M  V30 17 2 15 18
M  V30 18 1 16 19 CFG=3
M  V30 19 1 16 20
M  V30 20 2 17 21
M  V30 21 1 19 22
M  V30 22 2 22 23
M  V30 23 1 22 24
M  V30 24 1 23 25
M  V30 25 1 24 26
M  V30 26 2 24 27
M  V30 27 2 25 28
M  V30 28 1 26 29
M  V30 29 1 27 30
M  V30 30 1 7 11
M  V30 31 2 10 13
M  V30 32 1 18 21
M  V30 33 1 27 28
M  V30 34 2 29 30
M  V30 END BOND
M  V30 BEGIN COLLECTION
M  V30 MDLV30/STERAC1 ATOMS=(1 16)
M  V30 END COLLECTION
M  V30 END CTAB
M  END
>  <Molecule Name>


>  <status>
-

>  <cas>
1201438-56-3

>  <name>
DUVELISIB

>  <ID>
1921

>  <Smiles>
CC(C(N1c2ccccc2)=Cc2cccc(Cl)c2C1=O)Nc1ncnc2c1[nH]cn2

$$$$

Actelion Java MolfileCreator 2.0

  0  0  0  0  0  0              0 V3000
M  V30 BEGIN CTAB
M  V30 COUNTS 41 45 0 0 0
M  V30 BEGIN ATOM
M  V30 1 Cl 1.299 1.5 0.0 0
M  V30 2 C 2.598 2.25 0.0 0
M  V30 3 C 3.8971 1.5 0.0 0
M  V30 4 C 2.598 3.75 0.0 0
M  V30 5 C 5.1961 2.25 0.0 0
M  V30 6 C 3.8971 0.0 0.0 0 CFG=2
M  V30 7 C 3.8971 4.5 0.0 0
M  V30 8 C 5.1961 3.75 0.0 0
M  V30 9 N 5.1961 -0.75 0.0 0
M  V30 10 C 2.598 -0.75 0.0 0
M  V30 11 C 5.1961 -2.25 0.0 0
M  V30 12 C 6.4951 0.0 0.0 0
M  V30 13 O 2.598 -2.25 0.0 0
M  V30 14 N 1.299 0.0 0.0 0
M  V30 15 C 6.4951 -3.0 0.0 0
M  V30 16 C 3.8971 -3.0 0.0 0
M  V30 17 O 6.4951 1.5 0.0 0
M  V30 18 C 7.7942 -0.75 0.0 0 CFG=1
M  V30 19 C 0.0 -0.75 0.0 0
M  V30 20 N 6.4951 -4.5 0.0 0
M  V30 21 C 3.8971 -4.5 0.0 0
M  V30 22 N 9.1645 -0.1398 0.0 0
M  V30 23 C 7.951 -2.2417 0.0 0
M  V30 24 C -1.4488 -0.3617 0.0 0
M  V30 25 C -0.3882 -2.1988 0.0 0
M  V30 26 C 5.1961 -5.25 0.0 0
M  V30 27 F 2.598 -5.25 0.0 0
M  V30 28 C 9.4764 1.3273 0.0 0
M  V30 29 C 10.1682 -1.2546 0.0 0
M  V30 30 C 9.4182 -2.5536 0.0 0
M  V30 31 C -1.8371 -1.8106 0.0 0
M  V30 32 N 10.903 1.7908 0.0 0
M  V30 33 C 8.3617 2.331 0.0 0
M  V30 34 O 11.66 -1.0978 0.0 0
M  V30 35 F -3.337 -1.8106 0.0 0
M  V30 36 F -2.587 -3.1096 0.0 0
M  V30 37 C 11.2148 3.258 0.0 0
M  V30 38 C 8.6735 3.7982 0.0 0
M  V30 39 C 10.1001 4.2617 0.0 0
M  V30 40 C 7.5588 4.8019 0.0 0
M  V30 41 N 6.4441 5.8056 0.0 0
M  V30 END ATOM
M  V30 BEGIN BOND
M  V30 1 1 1 2
M  V30 2 2 2 3
M  V30 3 1 2 4
M  V30 4 1 3 5
M  V30 5 1 6 3
M  V30 6 2 4 7
M  V30 7 2 5 8
M  V30 8 1 6 9 CFG=3
M  V30 9 1 6 10
M  V30 10 1 9 11
M  V30 11 1 9 12
M  V30 12 2 10 13
M  V30 13 1 10 14
M  V30 14 2 11 15
M  V30 15 1 11 16
M  V30 16 2 12 17
M  V30 17 1 18 12 CFG=1
M  V30 18 1 14 19
M  V30 19 1 15 20
M  V30 20 2 16 21
M  V30 21 1 18 22
M  V30 22 1 18 23
M  V30 23 1 19 24
M  V30 24 1 19 25
M  V30 25 2 20 26
M  V30 26 1 21 27
M  V30 27 1 22 28
M  V30 28 1 22 29
M  V30 29 1 23 30
M  V30 30 1 24 31
M  V30 31 2 28 32
M  V30 32 1 28 33
M  V30 33 2 29 34
M  V30 34 1 31 35
M  V30 35 1 31 36
M  V30 36 1 32 37
M  V30 37 2 33 38
M  V30 38 2 37 39
M  V30 39 1 38 40
M  V30 40 3 40 41
M  V30 41 1 7 8
M  V30 42 1 21 26
M  V30 43 1 25 31
M  V30 44 1 29 30
M  V30 45 1 38 39
M  V30 END BOND
M  V30 BEGIN COLLECTION
M  V30 MDLV30/STERAC1 ATOMS=(2 6 18)
M  V30 END COLLECTION
M  V30 END CTAB
M  END
>  <Molecule Name>


>  <status>
-

>  <cas>
1448347-49-6

>  <name>
IVOSIDENIB

>  <ID>
1922

>  <Smiles>
N#Cc1cc(N([C@@H](CC2)C(N([C@H](C(NC(C3)CC3(F)F)=O)c(cccc3)c3Cl)c3cncc(F)c3)=O)C2=O)ncc1

$$$$

Actelion Java MolfileCreator 2.0

  0  0  0  0  0  0              0 V3000
M  V30 BEGIN CTAB
M  V30 COUNTS 14 14 0 0 0
M  V30 BEGIN ATOM
M  V30 1 O 7.7942 -0.75 0.0 0
M  V30 2 C 6.4951 0.0 0.0 0
M  V30 3 O 5.1961 -0.75 0.0 0
M  V30 4 N 6.4951 1.5 0.0 0
M  V30 5 C 3.8971 0.0 0.0 0
M  V30 6 C 2.598 -0.75 0.0 0 CFG=1
M  V30 7 N 2.598 -2.25 0.0 0
M  V30 8 C 1.299 0.0 0.0 0
M  V30 9 C 0.0 -0.75 0.0 0
M  V30 10 C -1.299 0.0 0.0 0
M  V30 11 C 0.0 -2.2499 0.0 0
M  V30 12 C -2.598 -0.7499 0.0 0
M  V30 13 C -1.299 -2.9999 0.0 0
M  V30 14 C -2.598 -2.2499 0.0 0
M  V30 END ATOM
M  V30 BEGIN BOND
M  V30 1 2 1 2
M  V30 2 1 2 3
M  V30 3 1 2 4
M  V30 4 1 3 5
M  V30 5 1 6 5
M  V30 6 1 6 7 CFG=1
M  V30 7 1 6 8
M  V30 8 1 8 9
M  V30 9 2 9 10
M  V30 10 1 9 11
M  V30 11 1 10 12
M  V30 12 2 11 13
M  V30 13 2 12 14
M  V30 14 1 13 14
M  V30 END BOND
M  V30 BEGIN COLLECTION
M  V30 MDLV30/STERAC1 ATOMS=(1 6)
M  V30 END COLLECTION
M  V30 END CTAB
M  END
>  <Molecule Name>


>  <status>
-

>  <cas>
178429-62-4

>  <name>
SOLRIAMFETOL

>  <ID>
1923

>  <Smiles>
NC(Cc1ccccc1)COC(N)=O

$$$$

Actelion Java MolfileCreator 2.0

  0  0  0  0  0  0              0 V3000
M  V30 BEGIN CTAB
M  V30 COUNTS 33 36 0 0 0
M  V30 BEGIN ATOM
M  V30 1 Cl 1.732 -3.4999 0.0 0
M  V30 2 C 2.598 -2.9999 0.0 0
M  V30 3 C 2.598 -1.9999 0.0 0
M  V30 4 C 3.4641 -3.4999 0.0 0
M  V30 5 F 1.732 -1.4999 0.0 0
M  V30 6 C 3.4641 -1.4999 0.0 0
M  V30 7 C 4.3301 -2.9999 0.0 0
M  V30 8 C 4.3301 -1.9999 0.0 0
M  V30 9 N 5.1961 -3.4999 0.0 0
M  V30 10 C 6.0621 -2.9999 0.0 0
M  V30 11 N 6.9282 -3.5 0.0 0
M  V30 12 C 6.0621 -2.0 0.0 0
M  V30 13 C 7.7942 -3.0 0.0 0
M  V30 14 C 6.9282 -1.5 0.0 0
M  V30 15 C 5.1961 -1.5 0.0 0
M  V30 16 N 7.7942 -2.0 0.0 0
M  V30 17 C 6.9282 -0.5 0.0 0
M  V30 18 C 5.1961 -0.5 0.0 0
M  V30 19 C 6.0621 0.0 0.0 0
M  V30 20 N 4.3301 0.0 0.0 0
M  V30 21 O 6.0621 0.9999 0.0 0
M  V30 22 C 4.3301 1.0 0.0 0
M  V30 23 C 6.9282 1.4999 0.0 0
M  V30 24 O 5.1961 1.5 0.0 0
M  V30 25 C 3.4641 1.5 0.0 0
M  V30 26 C 3.4641 2.5 0.0 0
M  V30 27 C 2.598 3.0 0.0 0
M  V30 28 N 2.598 4.0 0.0 0
M  V30 29 C 1.732 4.5 0.0 0
M  V30 30 C 3.4641 4.5 0.0 0
M  V30 31 C 1.732 5.5 0.0 0
M  V30 32 C 3.4641 5.5 0.0 0
M  V30 33 C 2.598 6.0 0.0 0
M  V30 END ATOM
M  V30 BEGIN BOND
M  V30 1 1 1 2
M  V30 2 2 2 3
M  V30 3 1 2 4
M  V30 4 1 3 5
M  V30 5 1 3 6
M  V30 6 2 4 7
M  V30 7 2 6 8
M  V30 8 1 7 9
M  V30 9 1 9 10
M  V30 10 2 10 11
M  V30 11 1 10 12
M  V30 12 1 11 13
M  V30 13 1 12 14
M  V30 14 2 12 15
M  V30 15 2 13 16
M  V30 16 2 14 17
M  V30 17 1 15 18
M  V30 18 1 17 19
M  V30 19 1 18 20
M  V30 20 1 19 21
M  V30 21 1 20 22
M  V30 22 1 21 23
M  V30 23 2 22 24
M  V30 24 1 22 25
M  V30 25 2 25 26
M  V30 26 1 26 27
M  V30 27 1 27 28
M  V30 28 1 28 29
M  V30 29 1 28 30
M  V30 30 1 29 31
M  V30 31 1 30 32
M  V30 32 1 31 33
M  V30 33 1 7 8
M  V30 34 1 14 16
M  V30 35 2 18 19
M  V30 36 1 32 33
M  V30 END BOND
M  V30 END CTAB
M  END
>  <Molecule Name>


>  <status>
-

>  <cas>
1110813-31-4

>  <name>
DACOMITINIB

>  <ID>
1924

>  <Smiles>
COc(cc(c1c2)ncnc1Nc(cc1)cc(Cl)c1F)c2NC(/C=C/CN1CCCCC1)=O

$$$$

Actelion Java MolfileCreator 2.0

  0  0  0  0  0  0              0 V3000
M  V30 BEGIN CTAB
M  V30 COUNTS 40 44 0 0 0
M  V30 BEGIN ATOM
M  V30 1 O 0.0 -3.5 0.0 0
M  V30 2 C -0.866 -2.9999 0.0 0
M  V30 3 N -1.732 -3.4999 0.0 0
M  V30 4 C -0.866 -1.9999 0.0 0
M  V30 5 N -1.732 -1.4999 0.0 0
M  V30 6 C 0.0 -1.4999 0.0 0
M  V30 7 C -1.732 -0.4999 0.0 0
M  V30 8 N 0.0 -0.4999 0.0 0
M  V30 9 N 0.866 -2.0 0.0 0
M  V30 10 C -0.866 0.0 0.0 0
M  V30 11 C -2.598 0.0 0.0 0
M  V30 12 C 1.732 -1.5 0.0 0
M  V30 13 N -0.866 1.0 0.0 0
M  V30 14 C -2.598 1.0 0.0 0
M  V30 15 C 2.598 -2.0 0.0 0
M  V30 16 C 1.732 -0.5 0.0 0
M  V30 17 C 0.0 1.4999 0.0 0
M  V30 18 C 3.4641 -1.5 0.0 0
M  V30 19 C 2.598 0.0 0.0 0
M  V30 20 C 0.0 2.4999 0.0 0
M  V30 21 C 0.866 0.9999 0.0 0
M  V30 22 O 4.3301 -2.0 0.0 0
M  V30 23 C 3.4641 -0.5 0.0 0
M  V30 24 C 0.866 2.9999 0.0 0
M  V30 25 C 1.732 1.4999 0.0 0
M  V30 26 C 5.1961 -1.5 0.0 0
M  V30 27 N 4.3301 0.0 0.0 0
M  V30 28 O 1.732 2.4999 0.0 0
M  V30 29 C 5.1961 -0.5 0.0 0
M  V30 30 C 4.3301 0.9999 0.0 0
M  V30 31 C 6.0621 0.0 0.0 0
M  V30 32 C 5.1961 1.4999 0.0 0
M  V30 33 C 6.0621 0.9999 0.0 0
M  V30 34 N 6.9282 1.4999 0.0 0
M  V30 35 C 7.7942 0.9999 0.0 0
M  V30 36 C 6.9282 2.4999 0.0 0
M  V30 37 C 8.6602 1.4999 0.0 0
M  V30 38 C 7.7942 2.9999 0.0 0
M  V30 39 N 8.6602 2.4999 0.0 0
M  V30 40 C 9.5262 2.9999 0.0 0
M  V30 END ATOM
M  V30 BEGIN BOND
M  V30 1 2 1 2
M  V30 2 1 2 3
M  V30 3 1 2 4
M  V30 4 2 4 5
M  V30 5 1 4 6
M  V30 6 1 5 7
M  V30 7 2 6 8
M  V30 8 1 6 9
M  V30 9 2 7 10
M  V30 10 1 7 11
M  V30 11 1 9 12
M  V30 12 1 10 13
M  V30 13 1 11 14
M  V30 14 2 12 15
M  V30 15 1 12 16
M  V30 16 1 13 17
M  V30 17 1 15 18
M  V30 18 2 16 19
M  V30 19 1 17 20
M  V30 20 1 17 21
M  V30 21 1 18 22
M  V30 22 2 18 23
M  V30 23 1 20 24
M  V30 24 1 21 25
M  V30 25 1 22 26
M  V30 26 1 23 27
M  V30 27 1 24 28
M  V30 28 1 27 29
M  V30 29 1 27 30
M  V30 30 1 29 31
M  V30 31 1 30 32
M  V30 32 1 31 33
M  V30 33 1 33 34
M  V30 34 1 34 35
M  V30 35 1 34 36
M  V30 36 1 35 37
M  V30 37 1 36 38
M  V30 38 1 37 39
M  V30 39 1 39 40
M  V30 40 1 8 10
M  V30 41 1 19 23
M  V30 42 1 25 28
M  V30 43 1 32 33
M  V30 44 1 38 39
M  V30 END BOND
M  V30 END CTAB
M  END
>  <Molecule Name>


>  <status>
-

>  <cas>
1254053-43-4

>  <name>
GILTERITINIB

>  <ID>
1925

>  <Smiles>
CCc(nc1C(N)=O)c(NC2CCOCC2)nc1Nc(cc1)cc(OC)c1N(CC1)CCC1N1CCN(C)CC1

$$$$

Actelion Java MolfileCreator 2.0

  0  0  0  0  0  0              0 V3000
M  V30 BEGIN CTAB
M  V30 COUNTS 23 26 0 0 0
M  V30 BEGIN ATOM
M  V30 1 O 2.598 -0.75 0.0 0
M  V30 2 C 1.299 0.0 0.0 0
M  V30 3 C 1.299 1.5 0.0 0 CFG=2
M  V30 4 C 0.0 -0.75 0.0 0
M  V30 5 C 2.5125 2.3816 0.0 0 CFG=2
M  V30 6 C 0.0855 2.3816 0.0 0
M  V30 7 C 2.049 3.8082 0.0 0 CFG=1
M  V30 8 C 3.9797 2.0698 0.0 0
M  V30 9 C 2.8244 0.9144 0.0 0
M  V30 10 C 0.549 3.8082 0.0 0
M  V30 11 C 3.0527 4.9229 0.0 0 CFG=1
M  V30 12 C 4.9834 3.1845 0.0 0
M  V30 13 C 4.5199 4.6111 0.0 0 CFG=2
M  V30 14 C 2.5892 6.3495 0.0 0
M  V30 15 C 5.5236 5.7258 0.0 0 CFG=2
M  V30 16 C 3.5929 7.4642 0.0 0
M  V30 17 C 5.0601 7.1524 0.0 0 CFG=1
M  V30 18 C 6.9908 5.4139 0.0 0
M  V30 19 C 5.9871 4.2992 0.0 0
M  V30 20 C 6.0638 8.2671 0.0 0
M  V30 21 C 7.9945 6.5286 0.0 0
M  V30 22 C 7.531 7.9552 0.0 0 CFG=1
M  V30 23 O 8.5347 9.0699 0.0 0
M  V30 END ATOM
M  V30 BEGIN BOND
M  V30 1 2 1 2
M  V30 2 1 3 2 CFG=1
M  V30 3 1 2 4
M  V30 4 1 5 3
M  V30 5 1 3 6
M  V30 6 1 7 5
M  V30 7 1 5 8
M  V30 8 1 5 9 CFG=1
M  V30 9 1 6 10
M  V30 10 1 11 7
M  V30 11 1 8 12
M  V30 12 1 13 11
M  V30 13 1 11 14 CFG=3
M  V30 14 1 15 13
M  V30 15 1 14 16
M  V30 16 1 17 15
M  V30 17 1 15 18
M  V30 18 1 15 19 CFG=1
M  V30 19 1 17 20 CFG=1
M  V30 20 1 18 21
M  V30 21 1 22 20
M  V30 22 1 22 23 CFG=3
M  V30 23 1 7 10 CFG=1
M  V30 24 1 13 12 CFG=1
M  V30 25 1 16 17
M  V30 26 1 21 22
M  V30 END BOND
M  V30 BEGIN COLLECTION
M  V30 MDLV30/STERAC1 ATOMS=(8 3 5 7 11 13 15 17 22)
M  V30 END COLLECTION
M  V30 END CTAB
M  END
>  <Molecule Name>


>  <status>
-

>  <cas>
516-54-1

>  <name>
BREXANOLONE

>  <ID>
1926

>  <Smiles>
C[C@](CC1)([C@@H](CC2)[C@H](CC3)[C@H]1[C@@](C)(CC1)[C@@H]3C[C@@H]1O)[C@H]2C(C)=O

$$$$

Actelion Java MolfileCreator 2.0

  0  0  0  0  0  0              0 V3000
M  V30 BEGIN CTAB
M  V30 COUNTS 28 32 0 0 0
M  V30 BEGIN ATOM
M  V30 1 F 7.7942 2.2499 0.0 0
M  V30 2 C 6.4951 1.4999 0.0 0
M  V30 3 C 5.1961 2.2499 0.0 0
M  V30 4 C 6.4951 0.0 0.0 0
M  V30 5 C 3.8971 1.4999 0.0 0
M  V30 6 C 5.1961 -0.75 0.0 0
M  V30 7 N 2.598 2.2499 0.0 0
M  V30 8 C 3.8971 0.0 0.0 0
M  V30 9 C 5.1961 -2.2499 0.0 0
M  V30 10 C 1.299 1.4999 0.0 0 CFG=2
M  V30 11 C 2.598 -0.75 0.0 0
M  V30 12 O 6.4951 -2.9999 0.0 0
M  V30 13 N 3.8971 -3.0 0.0 0
M  V30 14 C 0.0 2.25 0.0 0
M  V30 15 C 1.299 0.0 0.0 0 CFG=2
M  V30 16 N 2.598 -2.25 0.0 0
M  V30 17 C 0.0 3.75 0.0 0
M  V30 18 C -1.299 1.5 0.0 0
M  V30 19 C 0.0 -0.75 0.0 0
M  V30 20 C -1.299 4.5 0.0 0
M  V30 21 C -2.598 2.25 0.0 0
M  V30 22 N -1.3703 -0.1398 0.0 0
M  V30 23 N -0.1567 -2.2417 0.0 0
M  V30 24 C -2.598 3.75 0.0 0
M  V30 25 C -2.374 -1.2546 0.0 0
M  V30 26 N -1.624 -2.5536 0.0 0
M  V30 27 C 0.9579 -3.2454 0.0 0
M  V30 28 F -3.8971 4.5 0.0 0
M  V30 END ATOM
M  V30 BEGIN BOND
M  V30 1 1 1 2
M  V30 2 2 2 3
M  V30 3 1 2 4
M  V30 4 1 3 5
M  V30 5 2 4 6
M  V30 6 1 5 7
M  V30 7 2 5 8
M  V30 8 1 6 9
M  V30 9 1 10 7
M  V30 10 1 8 11
M  V30 11 2 9 12
M  V30 12 1 9 13
M  V30 13 1 10 14 CFG=1
M  V30 14 1 15 10
M  V30 15 2 11 16
M  V30 16 2 14 17
M  V30 17 1 14 18
M  V30 18 1 15 19 CFG=3
M  V30 19 1 17 20
M  V30 20 2 18 21
M  V30 21 2 19 22
M  V30 22 1 19 23
M  V30 23 2 20 24
M  V30 24 1 22 25
M  V30 25 1 23 26
M  V30 26 1 23 27
M  V30 27 1 24 28
M  V30 28 1 6 8
M  V30 29 1 11 15
M  V30 30 1 13 16
M  V30 31 1 21 24
M  V30 32 2 25 26
M  V30 END BOND
M  V30 BEGIN COLLECTION
M  V30 MDLV30/STERAC1 ATOMS=(2 10 15)
M  V30 END COLLECTION
M  V30 END CTAB
M  END
>  <Molecule Name>


>  <status>
-

>  <cas>
1207456-01-6

>  <name>
TALAZOPARIB

>  <ID>
1927

>  <Smiles>
Cn1ncnc1[C@H]([C@@H](c(cc1)ccc1F)Nc1c2c3cc(F)c1)C2=NNC3=O

$$$$

Actelion Java MolfileCreator 2.0

  0  0  0  0  0  0              0 V3000
M  V30 BEGIN CTAB
M  V30 COUNTS 20 22 0 0 0
M  V30 BEGIN ATOM
M  V30 1 Cl 8.0029 -2.732 0.0 0
M  V30 2 C 7.5029 -1.866 0.0 0
M  V30 3 C 8.0029 -1.0 0.0 0
M  V30 4 C 6.5029 -1.866 0.0 0
M  V30 5 C 7.5029 -0.1339 0.0 0
M  V30 6 C 6.0029 -0.9999 0.0 0
M  V30 7 Cl 8.0029 0.732 0.0 0
M  V30 8 C 6.5029 -0.1339 0.0 0
M  V30 9 C 5.0029 -0.9999 0.0 0
M  V30 10 O 4.4151 -0.1909 0.0 0
M  V30 11 N 4.4151 -1.809 0.0 0
M  V30 12 C 3.4641 -0.4999 0.0 0
M  V30 13 C 3.4641 -1.4999 0.0 0
M  V30 14 C 2.598 0.0 0.0 0
M  V30 15 C 2.598 -2.0 0.0 0
M  V30 16 C 1.732 -0.5 0.0 0
M  V30 17 C 1.732 -1.4999 0.0 0
M  V30 18 C 0.866 0.0 0.0 0
M  V30 19 O 0.866 1.0 0.0 0
M  V30 20 O 0.0 -0.5 0.0 0 CHG=-1
M  V30 END ATOM
M  V30 BEGIN BOND
M  V30 1 1 1 2
M  V30 2 2 2 3
M  V30 3 1 2 4
M  V30 4 1 3 5
M  V30 5 2 4 6
M  V30 6 1 5 7
M  V30 7 2 5 8
M  V30 8 1 6 9
M  V30 9 1 9 10
M  V30 10 2 9 11
M  V30 11 1 10 12
M  V30 12 1 11 13
M  V30 13 1 12 14
M  V30 14 1 13 15
M  V30 15 2 14 16
M  V30 16 2 15 17
M  V30 17 1 16 18
M  V30 18 2 18 19
M  V30 19 1 18 20
M  V30 20 1 6 8
M  V30 21 2 12 13
M  V30 22 1 16 17
M  V30 END BOND
M  V30 END CTAB
M  END
>  <Molecule Name>


>  <status>
-

>  <cas>
594839-88-0

>  <name>
TAFAMIDIS

>  <ID>
1928

>  <Smiles>
[O-]C(c(cc1)cc2c1nc(-c1cc(Cl)cc(Cl)c1)o2)=O

$$$$

Actelion Java MolfileCreator 2.0

  0  0  0  0  0  0              0 V3000
M  V30 BEGIN CTAB
M  V30 COUNTS 33 36 0 0 0
M  V30 BEGIN ATOM
M  V30 1 O 6.0621 -3.0 0.0 0
M  V30 2 C 6.0621 -2.0 0.0 0
M  V30 3 C 6.9282 -3.5 0.0 0
M  V30 4 C 6.9282 -1.5 0.0 0
M  V30 5 C 5.1961 -1.4999 0.0 0
M  V30 6 C 6.9282 -0.5 0.0 0
M  V30 7 C 5.1961 -0.5 0.0 0
M  V30 8 O 7.7942 0.0 0.0 0
M  V30 9 C 6.0621 0.0 0.0 0
M  V30 10 N 4.3301 0.0 0.0 0
M  V30 11 C 7.7942 0.9999 0.0 0
M  V30 12 C 4.3301 1.0 0.0 0
M  V30 13 C 3.4641 -0.5 0.0 0
M  V30 14 C 5.1961 1.4999 0.0 0
M  V30 15 C 3.4641 1.5 0.0 0
M  V30 16 C 2.598 0.0 0.0 0
M  V30 17 C 5.1961 2.4999 0.0 0
M  V30 18 C 3.4641 2.5 0.0 0
M  V30 19 N 1.732 -0.5 0.0 0
M  V30 20 N 6.0621 3.0 0.0 0
M  V30 21 C 4.3301 2.9999 0.0 0
M  V30 22 C 0.866 0.0 0.0 0
M  V30 23 C 6.0621 4.0 0.0 0
M  V30 24 N 4.3301 4.0 0.0 0
M  V30 25 C 0.866 1.0 0.0 0
M  V30 26 C 0.0 -0.5 0.0 0
M  V30 27 C 6.9282 4.5 0.0 0
M  V30 28 C 5.1961 4.5 0.0 0
M  V30 29 C 7.8417 4.0932 0.0 0
M  V30 30 C 7.0327 5.4945 0.0 0
M  V30 31 N 8.5108 4.8364 0.0 0
M  V30 32 N 8.0108 5.7024 0.0 0
M  V30 33 C 8.4176 6.6159 0.0 0
M  V30 END ATOM
M  V30 BEGIN BOND
M  V30 1 1 1 2
M  V30 2 1 1 3
M  V30 3 2 2 4
M  V30 4 1 2 5
M  V30 5 1 4 6
M  V30 6 2 5 7
M  V30 7 1 6 8
M  V30 8 2 6 9
M  V30 9 1 7 10
M  V30 10 1 8 11
M  V30 11 1 10 12
M  V30 12 1 10 13
M  V30 13 2 12 14
M  V30 14 1 12 15
M  V30 15 1 13 16
M  V30 16 1 14 17
M  V30 17 2 15 18
M  V30 18 1 16 19
M  V30 19 2 17 20
M  V30 20 1 17 21
M  V30 21 1 19 22
M  V30 22 1 20 23
M  V30 23 2 21 24
M  V30 24 1 22 25
M  V30 25 1 22 26
M  V30 26 1 23 27
M  V30 27 2 23 28
M  V30 28 1 27 29
M  V30 29 2 27 30
M  V30 30 2 29 31
M  V30 31 1 30 32
M  V30 32 1 32 33
M  V30 33 1 7 9
M  V30 34 1 18 21
M  V30 35 1 24 28
M  V30 36 1 31 32
M  V30 END BOND
M  V30 END CTAB
M  END
>  <Molecule Name>


>  <status>
-

>  <cas>
1346242-81-6

>  <name>
ERDAFITINIB

>  <ID>
1929

>  <Smiles>
CC(C)NCCN(c1cc2nc(-c3cn(C)nc3)cnc2cc1)c1cc(OC)cc(OC)c1

$$$$

Actelion Java MolfileCreator 2.0

  0  0  0  0  0  0              0 V3000
M  V30 BEGIN CTAB
M  V30 COUNTS 30 32 0 0 0
M  V30 BEGIN ATOM
M  V30 1 S 4.0539 1.4917 0.0 0
M  V30 2 C 3.8971 0.0 0.0 0
M  V30 3 C 5.5211 1.8036 0.0 0
M  V30 4 N 5.2674 -0.6101 0.0 0
M  V30 5 N 2.598 -0.75 0.0 0
M  V30 6 C 6.1312 3.1739 0.0 0
M  V30 7 C 6.2711 0.5046 0.0 0
M  V30 8 C 1.299 0.0 0.0 0
M  V30 9 C 7.623 3.3307 0.0 0
M  V30 10 C 5.2495 4.3875 0.0 0
M  V30 11 C 7.7629 0.3478 0.0 0
M  V30 12 O 1.299 1.5 0.0 0
M  V30 13 N 0.0 -0.75 0.0 0
M  V30 14 C 8.2331 4.701 0.0 0
M  V30 15 C 5.8596 5.7578 0.0 0
M  V30 16 C -1.3703 -0.1398 0.0 0 CFG=2
M  V30 17 C -0.1567 -2.2417 0.0 0
M  V30 18 N 7.3514 5.9146 0.0 0
M  V30 19 C 9.7249 4.8578 0.0 0
M  V30 20 C -1.6821 1.3273 0.0 0
M  V30 21 C -2.374 -1.2546 0.0 0
M  V30 22 C -1.624 -2.5536 0.0 0
M  V30 23 C 10.335 6.2281 0.0 0
M  V30 24 C 9.8816 3.3661 0.0 0
M  V30 25 C 11.0952 4.2478 0.0 0
M  V30 26 O -0.5674 2.331 0.0 0
M  V30 27 N -3.1087 1.7908 0.0 0
M  V30 28 F 8.9647 6.8383 0.0 0
M  V30 29 F 10.9451 7.5985 0.0 0
M  V30 30 F 11.7053 5.618 0.0 0
M  V30 END ATOM
M  V30 BEGIN BOND
M  V30 1 1 1 2
M  V30 2 1 1 3
M  V30 3 2 2 4
M  V30 4 1 2 5
M  V30 5 1 3 6
M  V30 6 2 3 7
M  V30 7 1 5 8
M  V30 8 2 6 9
M  V30 9 1 6 10
M  V30 10 1 7 11
M  V30 11 2 8 12
M  V30 12 1 8 13
M  V30 13 1 9 14
M  V30 14 2 10 15
M  V30 15 1 16 13
M  V30 16 1 13 17
M  V30 17 2 14 18
M  V30 18 1 14 19
M  V30 19 1 16 20 CFG=1
M  V30 20 1 16 21
M  V30 21 1 17 22
M  V30 22 1 19 23
M  V30 23 1 19 24
M  V30 24 1 19 25
M  V30 25 2 20 26
M  V30 26 1 20 27
M  V30 27 1 23 28
M  V30 28 1 23 29
M  V30 29 1 23 30
M  V30 30 1 4 7
M  V30 31 1 15 18
M  V30 32 1 21 22
M  V30 END BOND
M  V30 BEGIN COLLECTION
M  V30 MDLV30/STERAC1 ATOMS=(1 16)
M  V30 END COLLECTION
M  V30 END CTAB
M  END
>  <Molecule Name>


>  <status>
-

>  <cas>
1217486-61-7

>  <name>
ALPELISIB

>  <ID>
1930

>  <Smiles>
CC(C)(C(F)(F)F)c1nccc(-c2c(C)nc(NC(N(CCC3)C3C(N)=O)=O)s2)c1

$$$$

Actelion Java MolfileCreator 2.0

  0  0  0  0  0  0              0 V3000
M  V30 BEGIN CTAB
M  V30 COUNTS 28 30 0 0 0
M  V30 BEGIN ATOM
M  V30 1 O 6.6807 1.2024 0.0 0
M  V30 2 C 5.6807 1.2024 0.0 0
M  V30 3 N 5.1807 2.0684 0.0 0
M  V30 4 N 5.1807 0.3364 0.0 0
M  V30 5 C 4.1807 2.0684 0.0 0
M  V30 6 C 5.6807 2.9344 0.0 0
M  V30 7 C 4.1807 0.3364 0.0 0
M  V30 8 C 5.6807 -0.5296 0.0 0
M  V30 9 O 3.6807 2.9344 0.0 0
M  V30 10 C 3.6807 1.2024 0.0 0
M  V30 11 C 5.1807 3.8005 0.0 0
M  V30 12 N 3.5116 -0.4067 0.0 0
M  V30 13 C 6.6807 -0.5296 0.0 0
M  V30 14 N 2.7026 0.9945 0.0 0
M  V30 15 C 2.598 0.0 0.0 0
M  V30 16 C 1.9594 1.6636 0.0 0
M  V30 17 C 1.732 -0.5 0.0 0
M  V30 18 C 0.866 0.0 0.0 0
M  V30 19 C 0.0 -0.5 0.0 0
M  V30 20 C -0.866 0.0 0.0 0
M  V30 21 C 0.0 -1.4999 0.0 0
M  V30 22 C -1.732 -0.4999 0.0 0
M  V30 23 C -0.866 -1.9999 0.0 0
M  V30 24 O -2.598 0.0 0.0 0
M  V30 25 C -1.732 -1.4999 0.0 0
M  V30 26 C -3.4641 -0.4999 0.0 0
M  V30 27 O -2.598 -1.9999 0.0 0
M  V30 28 C -2.598 -2.9999 0.0 0
M  V30 END ATOM
M  V30 BEGIN BOND
M  V30 1 2 1 2
M  V30 2 1 2 3
M  V30 3 1 2 4
M  V30 4 1 3 5
M  V30 5 1 3 6
M  V30 6 1 4 7
M  V30 7 1 4 8
M  V30 8 2 5 9
M  V30 9 1 5 10
M  V30 10 1 6 11
M  V30 11 1 7 12
M  V30 12 1 8 13
M  V30 13 1 10 14
M  V30 14 2 12 15
M  V30 15 1 14 16
M  V30 16 1 15 17
M  V30 17 2 17 18
M  V30 18 1 18 19
M  V30 19 2 19 20
M  V30 20 1 19 21
M  V30 21 1 20 22
M  V30 22 2 21 23
M  V30 23 1 22 24
M  V30 24 2 22 25
M  V30 25 1 24 26
M  V30 26 1 25 27
M  V30 27 1 27 28
M  V30 28 2 7 10
M  V30 29 1 14 15
M  V30 30 1 23 25
M  V30 END BOND
M  V30 END CTAB
M  END
>  <Molecule Name>


>  <status>
-

>  <cas>
155270-99-8

>  <name>
ISTRADEFYLLINE

>  <ID>
1931

>  <Smiles>
CCN(c1c(C(N2CC)=O)n(C)c(/C=C/c(cc3)cc(OC)c3OC)n1)C2=O

$$$$

Actelion Java MolfileCreator 2.0

  0  0  0  0  0  0              0 V3000
M  V30 BEGIN CTAB
M  V30 COUNTS 50 54 0 0 0
M  V30 BEGIN ATOM
M  V30 1 Cl 20.5235 -10.6649 0.0 0
M  V30 2 C 20.987 -9.2383 0.0 0
M  V30 3 C 22.4542 -8.9264 0.0 0
M  V30 4 C 19.9833 -8.1235 0.0 0
M  V30 5 O 23.4579 -10.0411 0.0 0
M  V30 6 C 22.9178 -7.4998 0.0 0
M  V30 7 C 18.5161 -8.4354 0.0 0
M  V30 8 C 20.4468 -6.697 0.0 0
M  V30 9 O 24.385 -7.1879 0.0 0
M  V30 10 C 21.9141 -6.3851 0.0 0
M  V30 11 O 18.0526 -9.862 0.0 0
M  V30 12 N 17.5124 -7.3207 0.0 0
M  V30 13 C 16.0452 -7.6326 0.0 0
M  V30 14 C 15.0415 -6.5178 0.0 0
M  V30 15 N 13.5742 -6.8297 0.0 0 CHG=1
M  V30 16 C 12.9641 -8.2 0.0 0
M  V30 17 C 12.4595 -5.826 0.0 0
M  V30 18 C 13.9625 -5.3808 0.0 0
M  V30 19 C 11.4724 -8.0432 0.0 0
M  V30 20 C 11.1605 -6.576 0.0 0
M  V30 21 C 12.9018 -4.3202 0.0 0
M  V30 22 C 13.29 -2.8713 0.0 0
M  V30 23 C 11.4529 -4.7084 0.0 0
M  V30 24 N 12.2294 -1.8106 0.0 0
M  V30 25 C 14.7389 -2.483 0.0 0
M  V30 26 S 10.3923 -3.6477 0.0 0
M  V30 27 C 11.8412 -0.3617 0.0 0
M  V30 28 C 10.7805 -2.1988 0.0 0 CFG=1
M  V30 29 O 15.7996 -3.5437 0.0 0
M  V30 30 O 15.1272 -1.0342 0.0 0 CHG=-1
M  V30 31 O 12.5912 0.9372 0.0 0
M  V30 32 C 10.3923 -0.75 0.0 0 CFG=1
M  V30 33 N 9.0932 0.0 0.0 0
M  V30 34 C 9.0932 1.5 0.0 0
M  V30 35 O 10.3923 2.25 0.0 0
M  V30 36 C 7.7942 2.25 0.0 0
M  V30 37 N 7.7942 3.75 0.0 0
M  V30 38 C 6.4951 1.5 0.0 0
M  V30 39 O 9.0932 4.5 0.0 0
M  V30 40 N 6.3384 0.0082 0.0 0
M  V30 41 C 5.1248 2.1101 0.0 0
M  V30 42 C 9.0932 6.0 0.0 0
M  V30 43 C 4.8711 -0.3036 0.0 0
M  V30 44 S 4.1211 0.9953 0.0 0
M  V30 45 C 10.3923 6.75 0.0 0
M  V30 46 C 8.3433 7.299 0.0 0
M  V30 47 C 7.5933 5.9999 0.0 0
M  V30 48 N 4.261 -1.6739 0.0 0
M  V30 49 O 11.6913 6.0 0.0 0
M  V30 50 O 10.3923 8.25 0.0 0 CHG=-1
M  V30 END ATOM
M  V30 BEGIN BOND
M  V30 1 1 1 2
M  V30 2 2 2 3
M  V30 3 1 2 4
M  V30 4 1 3 5
M  V30 5 1 3 6
M  V30 6 1 4 7
M  V30 7 2 4 8
M  V30 8 1 6 9
M  V30 9 2 6 10
M  V30 10 2 7 11
M  V30 11 1 7 12
M  V30 12 1 12 13
M  V30 13 1 13 14
M  V30 14 1 14 15
M  V30 15 1 15 16
M  V30 16 1 15 17
M  V30 17 1 15 18
M  V30 18 1 16 19
M  V30 19 1 17 20
M  V30 20 1 18 21
M  V30 21 2 21 22
M  V30 22 1 21 23
M  V30 23 1 22 24
M  V30 24 1 22 25
M  V30 25 1 23 26
M  V30 26 1 24 27
M  V30 27 1 28 24
M  V30 28 2 25 29
M  V30 29 1 25 30
M  V30 30 2 27 31
M  V30 31 1 32 27
M  V30 32 1 32 33 CFG=1
M  V30 33 1 33 34
M  V30 34 2 34 35
M  V30 35 1 34 36
M  V30 36 2 36 37
M  V30 37 1 36 38
M  V30 38 1 37 39
M  V30 39 1 38 40
M  V30 40 2 38 41
M  V30 41 1 39 42
M  V30 42 2 40 43
M  V30 43 1 41 44
M  V30 44 1 42 45
M  V30 45 1 42 46
M  V30 46 1 42 47
M  V30 47 1 43 48
M  V30 48 2 45 49
M  V30 49 1 45 50
M  V30 50 1 8 10
M  V30 51 1 19 20
M  V30 52 1 28 26 CFG=1
M  V30 53 1 28 32
M  V30 54 1 43 44
M  V30 END BOND
M  V30 BEGIN COLLECTION
M  V30 MDLV30/STERAC1 ATOMS=(2 28 32)
M  V30 END COLLECTION
M  V30 END CTAB
M  END
>  <Molecule Name>


>  <status>
-

>  <cas>
1225208-94-5

>  <name>
CEFIDEROCOL

>  <ID>
1932

>  <Smiles>
CC(C)(C([O-])=O)O/N=C(\C(N[C@H]([C@@H]1SCC(C[N+]2(CCNC(c(c(Cl)c3O)ccc3O)=O)CCCC2)=C(C([O-])=O)N11)C1=O)=O)/c1csc(N)n1

$$$$

Actelion Java MolfileCreator 2.0

  0  0  0  0  0  0              0 V3000
M  V30 BEGIN CTAB
M  V30 COUNTS 29 33 0 0 0
M  V30 BEGIN ATOM
M  V30 1 F 6.9282 1.4999 0.0 0
M  V30 2 C 6.0621 0.9999 0.0 0
M  V30 3 C 5.1961 1.4999 0.0 0
M  V30 4 C 6.0621 0.0 0.0 0
M  V30 5 C 4.3301 0.9999 0.0 0
M  V30 6 C 5.1961 -0.5 0.0 0
M  V30 7 C 4.3301 0.0 0.0 0
M  V30 8 C 3.4641 -0.5 0.0 0
M  V30 9 O 3.4641 -1.5 0.0 0
M  V30 10 C 2.598 0.0 0.0 0
M  V30 11 C 1.732 -0.5 0.0 0
M  V30 12 C 0.866 0.0 0.0 0
M  V30 13 N 0.0 -0.5 0.0 0
M  V30 14 C -0.866 0.0 0.0 0
M  V30 15 C 0.0 -1.4999 0.0 0
M  V30 16 C -1.732 -0.4999 0.0 0 CFG=1
M  V30 17 C -0.866 -1.9999 0.0 0
M  V30 18 C -2.6831 -0.1909 0.0 0
M  V30 19 C -1.732 -1.4999 0.0 0 CFG=2
M  V30 20 C -3.2708 -0.9999 0.0 0
M  V30 21 C -3.2398 0.6782 0.0 0
M  V30 22 N -2.6831 -1.809 0.0 0
M  V30 23 C -4.2654 -1.1045 0.0 0
M  V30 24 C -4.2398 0.6782 0.0 0
M  V30 25 C -3.0898 -2.7225 0.0 0
M  V30 26 N -4.6721 -2.018 0.0 0
M  V30 27 C -4.7398 -0.1878 0.0 0
M  V30 28 C -4.0843 -2.827 0.0 0
M  V30 29 C -5.6666 -2.1226 0.0 0
M  V30 END ATOM
M  V30 BEGIN BOND
M  V30 1 1 1 2
M  V30 2 2 2 3
M  V30 3 1 2 4
M  V30 4 1 3 5
M  V30 5 2 4 6
M  V30 6 2 5 7
M  V30 7 1 7 8
M  V30 8 2 8 9
M  V30 9 1 8 10
M  V30 10 1 10 11
M  V30 11 1 11 12
M  V30 12 1 12 13
M  V30 13 1 13 14
M  V30 14 1 13 15
M  V30 15 1 16 14 CFG=3
M  V30 16 1 15 17
M  V30 17 1 16 18
M  V30 18 1 19 16
M  V30 19 2 18 20
M  V30 20 1 18 21
M  V30 21 1 19 22 CFG=3
M  V30 22 1 20 23
M  V30 23 2 21 24
M  V30 24 1 22 25
M  V30 25 1 23 26
M  V30 26 2 23 27
M  V30 27 1 25 28
M  V30 28 1 26 29
M  V30 29 1 6 7
M  V30 30 1 17 19
M  V30 31 1 20 22
M  V30 32 1 24 27
M  V30 33 1 26 28
M  V30 END BOND
M  V30 BEGIN COLLECTION
M  V30 MDLV30/STERAC1 ATOMS=(2 16 19)
M  V30 END COLLECTION
M  V30 END CTAB
M  END
>  <Molecule Name>


>  <status>
-

>  <cas>
313368-91-1

>  <name>
LUMATEPERONE

>  <ID>
1933

>  <Smiles>
CN(CC1)c2cccc3c2N1[C@@H]1[C@H]3CN(CCCC(c(cc2)ccc2F)=O)CC1

$$$$

Actelion Java MolfileCreator 2.0

  0  0  0  0  0  0              0 V3000
M  V30 BEGIN CTAB
M  V30 COUNTS 25 26 0 0 0
M  V30 BEGIN ATOM
M  V30 1 S 6.4952 -4.5 0.0 0
M  V30 2 O 7.2451 -5.799 0.0 0
M  V30 3 O 7.9951 -4.4999 0.0 0
M  V30 4 C 6.4952 -3.0 0.0 0
M  V30 5 C 5.1961 -5.25 0.0 0
M  V30 6 C 7.7942 -2.25 0.0 0
M  V30 7 C 5.1961 -2.25 0.0 0
M  V30 8 C 5.1961 -6.75 0.0 0
M  V30 9 N 9.0932 -3.0 0.0 0
M  V30 10 C 7.7942 -0.75 0.0 0
M  V30 11 C 5.1961 -0.75 0.0 0
M  V30 12 C 6.4952 0.0 0.0 0
M  V30 13 C 3.8971 0.0 0.0 0
M  V30 14 O 6.4952 1.5 0.0 0
M  V30 15 O 3.8971 1.5 0.0 0
M  V30 16 N 2.598 -0.75 0.0 0
M  V30 17 C 5.1961 2.25 0.0 0
M  V30 18 C 1.299 0.0 0.0 0
M  V30 19 C 0.0 -0.75 0.0 0 CFG=2
M  V30 20 N -1.3703 -0.1398 0.0 0
M  V30 21 C -0.1567 -2.2417 0.0 0
M  V30 22 C -2.374 -1.2546 0.0 0
M  V30 23 C -1.6821 1.3273 0.0 0
M  V30 24 C -1.624 -2.5536 0.0 0
M  V30 25 C -3.1087 1.7908 0.0 0
M  V30 END ATOM
M  V30 BEGIN BOND
M  V30 1 2 1 2
M  V30 2 2 1 3
M  V30 3 1 1 4
M  V30 4 1 1 5
M  V30 5 2 4 6
M  V30 6 1 4 7
M  V30 7 1 5 8
M  V30 8 1 6 9
M  V30 9 1 6 10
M  V30 10 2 7 11
M  V30 11 2 10 12
M  V30 12 1 11 13
M  V30 13 1 12 14
M  V30 14 2 13 15
M  V30 15 1 13 16
M  V30 16 1 14 17
M  V30 17 1 16 18
M  V30 18 1 19 18 CFG=1
M  V30 19 1 19 20
M  V30 20 1 19 21
M  V30 21 1 20 22
M  V30 22 1 20 23
M  V30 23 1 21 24
M  V30 24 1 23 25
M  V30 25 1 11 12
M  V30 26 1 22 24
M  V30 END BOND
M  V30 BEGIN COLLECTION
M  V30 MDLV30/STERAC1 ATOMS=(1 19)
M  V30 END COLLECTION
M  V30 END CTAB
M  END
>  <Molecule Name>


>  <status>
-

>  <cas>
71675-85-9

>  <name>
AMISULPRIDE

>  <ID>
1934

>  <Smiles>
CCN1C(CNC(c(c(OC)c2)cc(S(CC)(=O)=O)c2N)=O)CCC1

$$$$

Actelion Java MolfileCreator 2.0

  0  0  0  0  0  0              0 V3000
M  V30 BEGIN CTAB
M  V30 COUNTS 25 26 0 0 0
M  V30 BEGIN ATOM
M  V30 1 S 6.4952 -4.5 0.0 0
M  V30 2 O 7.2451 -5.799 0.0 0
M  V30 3 O 7.9951 -4.4999 0.0 0
M  V30 4 C 6.4952 -3.0 0.0 0
M  V30 5 C 5.1961 -5.25 0.0 0
M  V30 6 C 7.7942 -2.25 0.0 0
M  V30 7 C 5.1961 -2.25 0.0 0
M  V30 8 C 5.1961 -6.75 0.0 0
M  V30 9 N 9.0932 -3.0 0.0 0
M  V30 10 C 7.7942 -0.75 0.0 0
M  V30 11 C 5.1961 -0.75 0.0 0
M  V30 12 C 6.4952 0.0 0.0 0
M  V30 13 C 3.8971 0.0 0.0 0
M  V30 14 O 6.4952 1.5 0.0 0
M  V30 15 O 3.8971 1.5 0.0 0
M  V30 16 N 2.598 -0.75 0.0 0
M  V30 17 C 5.1961 2.25 0.0 0
M  V30 18 C 1.299 0.0 0.0 0
M  V30 19 C 0.0 -0.75 0.0 0 CFG=2
M  V30 20 N -1.3703 -0.1398 0.0 0
M  V30 21 C -0.1567 -2.2417 0.0 0
M  V30 22 C -2.374 -1.2546 0.0 0
M  V30 23 C -1.6821 1.3273 0.0 0
M  V30 24 C -1.624 -2.5536 0.0 0
M  V30 25 C -3.1087 1.7908 0.0 0
M  V30 END ATOM
M  V30 BEGIN BOND
M  V30 1 2 1 2
M  V30 2 2 1 3
M  V30 3 1 1 4
M  V30 4 1 1 5
M  V30 5 2 4 6
M  V30 6 1 4 7
M  V30 7 1 5 8
M  V30 8 1 6 9
M  V30 9 1 6 10
M  V30 10 2 7 11
M  V30 11 2 10 12
M  V30 12 1 11 13
M  V30 13 1 12 14
M  V30 14 2 13 15
M  V30 15 1 13 16
M  V30 16 1 14 17
M  V30 17 1 16 18
M  V30 18 1 19 18 CFG=1
M  V30 19 1 19 20
M  V30 20 1 19 21
M  V30 21 1 20 22
M  V30 22 1 20 23
M  V30 23 1 21 24
M  V30 24 1 23 25
M  V30 25 1 11 12
M  V30 26 1 22 24
M  V30 END BOND
M  V30 BEGIN COLLECTION
M  V30 MDLV30/STERAC1 ATOMS=(1 19)
M  V30 END COLLECTION
M  V30 END CTAB
M  END
>  <Molecule Name>


>  <status>
-

>  <cas>
71675-85-9

>  <name>
AMISULPRIDE

>  <ID>
1935

>  <Smiles>
CCN1C(CNC(c(c(OC)c2)cc(S(CC)(=O)=O)c2N)=O)CCC1

$$$$

Actelion Java MolfileCreator 2.0

  0  0  0  0  0  0              0 V3000
M  V30 BEGIN CTAB
M  V30 COUNTS 30 33 0 0 0
M  V30 BEGIN ATOM
M  V30 1 O 8.0953 -2.1806 0.0 0
M  V30 2 N 7.6885 -1.2671 0.0 0
M  V30 3 C 7.3521 -2.8497 0.0 0
M  V30 4 C 6.694 -1.3716 0.0 0
M  V30 5 N 6.4861 -2.3497 0.0 0
M  V30 6 C 7.4566 -3.8443 0.0 0
M  V30 7 C 6.0249 -0.6284 0.0 0
M  V30 8 C 6.6476 -4.432 0.0 0
M  V30 9 C 8.3702 -4.251 0.0 0
M  V30 10 C 5.0467 -0.8364 0.0 0
M  V30 11 C 6.3339 0.3225 0.0 0
M  V30 12 C 6.7522 -5.4266 0.0 0
M  V30 13 C 8.4747 -5.2455 0.0 0
M  V30 14 C 4.3776 -0.0932 0.0 0
M  V30 15 C 4.5467 -1.7024 0.0 0
M  V30 16 C 5.6648 1.0657 0.0 0
M  V30 17 C 5.9431 -6.0144 0.0 0
M  V30 18 C 7.6657 -5.8333 0.0 0
M  V30 19 C 4.6866 0.8577 0.0 0
M  V30 20 C 3.4641 -0.5 0.0 0 CFG=2
M  V30 21 C 3.5686 -1.4945 0.0 0
M  V30 22 N 5.1341 -6.6021 0.0 0
M  V30 23 O 7.7702 -6.8278 0.0 0
M  V30 24 N 2.598 0.0 0.0 0
M  V30 25 C 6.9612 -7.4156 0.0 0
M  V30 26 C 1.732 -0.5 0.0 0
M  V30 27 C 6.0477 -7.0089 0.0 0
M  V30 28 C 7.0657 -8.4101 0.0 0
M  V30 29 C 0.866 0.0 0.0 0
M  V30 30 O 0.0 -0.5 0.0 0
M  V30 END ATOM
M  V30 BEGIN BOND
M  V30 1 1 1 2
M  V30 2 1 1 3
M  V30 3 2 2 4
M  V30 4 2 3 5
M  V30 5 1 3 6
M  V30 6 1 4 7
M  V30 7 2 6 8
M  V30 8 1 6 9
M  V30 9 2 7 10
M  V30 10 1 7 11
M  V30 11 1 8 12
M  V30 12 2 9 13
M  V30 13 1 10 14
M  V30 14 1 10 15
M  V30 15 2 11 16
M  V30 16 1 12 17
M  V30 17 2 12 18
M  V30 18 2 14 19
M  V30 19 1 20 14
M  V30 20 1 15 21
M  V30 21 3 17 22
M  V30 22 1 18 23
M  V30 23 1 20 24 CFG=3
M  V30 24 1 23 25
M  V30 25 1 24 26
M  V30 26 1 25 27
M  V30 27 1 25 28
M  V30 28 1 26 29
M  V30 29 1 29 30
M  V30 30 1 4 5
M  V30 31 1 13 18
M  V30 32 1 16 19
M  V30 33 1 20 21
M  V30 END BOND
M  V30 BEGIN COLLECTION
M  V30 MDLV30/STERAC1 ATOMS=(1 20)
M  V30 END COLLECTION
M  V30 END CTAB
M  END
>  <Molecule Name>


>  <status>
-

>  <cas>
1306760-87-1

>  <name>
OZANIMOD

>  <ID>
1936

>  <Smiles>
CC(C)Oc(ccc(-c1nc(-c2c(CCC3NCCO)c3ccc2)no1)c1)c1C#N

$$$$

Actelion Java MolfileCreator 2.0

  0  0  0  0  0  0              0 V3000
M  V30 BEGIN CTAB
M  V30 COUNTS 27 30 0 0 0
M  V30 BEGIN ATOM
M  V30 1 O 15.444 -1.0066 0.0 0
M  V30 2 C 14.0737 -0.3965 0.0 0
M  V30 3 C 13.7619 1.0707 0.0 0
M  V30 4 C 12.7747 -1.1465 0.0 0
M  V30 5 C 12.2701 1.2275 0.0 0
M  V30 6 C 14.6435 2.2842 0.0 0
M  V30 7 C 11.66 -0.1428 0.0 0
M  V30 8 C 11.66 2.5978 0.0 0
M  V30 9 C 14.0334 3.6545 0.0 0
M  V30 10 C 10.1682 2.7546 0.0 0
M  V30 11 C 12.5417 3.8113 0.0 0
M  V30 12 N 9.4182 4.0536 0.0 0
M  V30 13 N 9.1645 1.6398 0.0 0
M  V30 14 O 7.951 3.7417 0.0 0
M  V30 15 C 7.7942 2.25 0.0 0
M  V30 16 C 6.4951 1.5 0.0 0
M  V30 17 C 5.1961 2.25 0.0 0
M  V30 18 C 6.4951 0.0 0.0 0
M  V30 19 C 3.8971 1.5 0.0 0
M  V30 20 C 5.1961 -0.7499 0.0 0
M  V30 21 C 2.598 2.2499 0.0 0
M  V30 22 C 3.8971 0.0 0.0 0
M  V30 23 N 1.299 2.9999 0.0 0
M  V30 24 O 2.598 -0.75 0.0 0
M  V30 25 C 1.299 0.0 0.0 0
M  V30 26 C 1.299 1.5 0.0 0
M  V30 27 C 0.0 -0.75 0.0 0
M  V30 END ATOM
M  V30 BEGIN BOND
M  V30 1 2 1 2
M  V30 2 1 2 3
M  V30 3 1 2 4
M  V30 4 2 3 5
M  V30 5 1 3 6
M  V30 6 1 4 7
M  V30 7 1 5 8
M  V30 8 2 6 9
M  V30 9 1 8 10
M  V30 10 2 8 11
M  V30 11 2 10 12
M  V30 12 1 10 13
M  V30 13 1 12 14
M  V30 14 2 13 15
M  V30 15 1 15 16
M  V30 16 2 16 17
M  V30 17 1 16 18
M  V30 18 1 17 19
M  V30 19 2 18 20
M  V30 20 1 19 21
M  V30 21 2 19 22
M  V30 22 3 21 23
M  V30 23 1 22 24
M  V30 24 1 24 25
M  V30 25 1 25 26
M  V30 26 1 25 27
M  V30 27 1 5 7
M  V30 28 1 9 11
M  V30 29 1 14 15
M  V30 30 1 20 22
M  V30 END BOND
M  V30 END CTAB
M  END
>  <Molecule Name>


>  <status>
-

>  <cas>
2251699-84-8

>  <name>
M OZANIMOD

>  <ID>
1937

>  <Smiles>
CC(C)Oc(ccc(-c1nc(-c2cccc3c2CCC3=O)no1)c1)c1C#N

$$$$

Actelion Java MolfileCreator 2.0

  0  0  0  0  0  0              0 V3000
M  V30 BEGIN CTAB
M  V30 COUNTS 27 30 0 0 0
M  V30 BEGIN ATOM
M  V30 1 O 6.1096 1.0932 0.0 0
M  V30 2 N 6.7788 1.8364 0.0 0
M  V30 3 C 5.1961 1.5 0.0 0
M  V30 4 C 6.2788 2.7024 0.0 0
M  V30 5 N 5.3006 2.4945 0.0 0
M  V30 6 C 4.3301 1.0 0.0 0
M  V30 7 C 6.6855 3.6159 0.0 0
M  V30 8 C 3.4641 1.5 0.0 0
M  V30 9 C 4.3301 0.0 0.0 0
M  V30 10 C 6.0977 4.4249 0.0 0
M  V30 11 C 7.68 3.7205 0.0 0
M  V30 12 C 2.598 0.9999 0.0 0
M  V30 13 C 3.4641 -0.4999 0.0 0
M  V30 14 C 6.5045 5.3385 0.0 0
M  V30 15 C 5.1032 4.5295 0.0 0
M  V30 16 C 8.0868 4.634 0.0 0
M  V30 17 C 1.732 1.4999 0.0 0
M  V30 18 C 2.598 0.0 0.0 0
M  V30 19 C 7.499 5.443 0.0 0
M  V30 20 C 5.7613 6.0076 0.0 0 CFG=2
M  V30 21 C 4.8953 5.5076 0.0 0
M  V30 22 N 0.866 1.9999 0.0 0
M  V30 23 O 1.732 -0.5 0.0 0
M  V30 24 O 5.8659 7.0021 0.0 0
M  V30 25 C 0.866 0.0 0.0 0
M  V30 26 C 0.866 1.0 0.0 0
M  V30 27 C 0.0 -0.5 0.0 0
M  V30 END ATOM
M  V30 BEGIN BOND
M  V30 1 1 1 2
M  V30 2 1 1 3
M  V30 3 2 2 4
M  V30 4 2 3 5
M  V30 5 1 3 6
M  V30 6 1 4 7
M  V30 7 2 6 8
M  V30 8 1 6 9
M  V30 9 2 7 10
M  V30 10 1 7 11
M  V30 11 1 8 12
M  V30 12 2 9 13
M  V30 13 1 10 14
M  V30 14 1 10 15
M  V30 15 2 11 16
M  V30 16 1 12 17
M  V30 17 2 12 18
M  V30 18 2 14 19
M  V30 19 1 20 14
M  V30 20 1 15 21
M  V30 21 3 17 22
M  V30 22 1 18 23
M  V30 23 1 20 24 CFG=3
M  V30 24 1 23 25
M  V30 25 1 25 26
M  V30 26 1 25 27
M  V30 27 1 4 5
M  V30 28 1 13 18
M  V30 29 1 16 19
M  V30 30 1 20 21
M  V30 END BOND
M  V30 BEGIN COLLECTION
M  V30 MDLV30/STERAC1 ATOMS=(1 20)
M  V30 END COLLECTION
M  V30 END CTAB
M  END
>  <Molecule Name>


>  <status>
-

>  <cas>
1306760-61-1

>  <name>
M OZANIMOD

>  <ID>
1938

>  <Smiles>
CC(C)Oc(ccc(-c1nc(-c2c(CCC3O)c3ccc2)no1)c1)c1C#N

$$$$

Actelion Java MolfileCreator 2.0

  0  0  0  0  0  0              0 V3000
M  V30 BEGIN CTAB
M  V30 COUNTS 27 30 0 0 0
M  V30 BEGIN ATOM
M  V30 1 O 6.1096 1.0932 0.0 0
M  V30 2 N 6.7788 1.8364 0.0 0
M  V30 3 C 5.1961 1.5 0.0 0
M  V30 4 C 6.2788 2.7024 0.0 0
M  V30 5 N 5.3006 2.4945 0.0 0
M  V30 6 C 4.3301 1.0 0.0 0
M  V30 7 C 6.6855 3.6159 0.0 0
M  V30 8 C 3.4641 1.5 0.0 0
M  V30 9 C 4.3301 0.0 0.0 0
M  V30 10 C 6.0977 4.4249 0.0 0
M  V30 11 C 7.68 3.7205 0.0 0
M  V30 12 C 2.598 0.9999 0.0 0
M  V30 13 C 3.4641 -0.4999 0.0 0
M  V30 14 C 6.5045 5.3385 0.0 0
M  V30 15 C 5.1032 4.5295 0.0 0
M  V30 16 C 8.0868 4.634 0.0 0
M  V30 17 C 1.732 1.4999 0.0 0
M  V30 18 C 2.598 0.0 0.0 0
M  V30 19 C 7.499 5.443 0.0 0
M  V30 20 C 5.7613 6.0076 0.0 0 CFG=2
M  V30 21 C 4.8953 5.5076 0.0 0
M  V30 22 N 0.866 1.9999 0.0 0
M  V30 23 O 1.732 -0.5 0.0 0
M  V30 24 O 5.8659 7.0021 0.0 0
M  V30 25 C 0.866 0.0 0.0 0
M  V30 26 C 0.866 1.0 0.0 0
M  V30 27 C 0.0 -0.5 0.0 0
M  V30 END ATOM
M  V30 BEGIN BOND
M  V30 1 1 1 2
M  V30 2 1 1 3
M  V30 3 2 2 4
M  V30 4 2 3 5
M  V30 5 1 3 6
M  V30 6 1 4 7
M  V30 7 2 6 8
M  V30 8 1 6 9
M  V30 9 2 7 10
M  V30 10 1 7 11
M  V30 11 1 8 12
M  V30 12 2 9 13
M  V30 13 1 10 14
M  V30 14 1 10 15
M  V30 15 2 11 16
M  V30 16 1 12 17
M  V30 17 2 12 18
M  V30 18 2 14 19
M  V30 19 1 20 14
M  V30 20 1 15 21
M  V30 21 3 17 22
M  V30 22 1 18 23
M  V30 23 1 20 24 CFG=3
M  V30 24 1 23 25
M  V30 25 1 25 26
M  V30 26 1 25 27
M  V30 27 1 4 5
M  V30 28 1 13 18
M  V30 29 1 16 19
M  V30 30 1 20 21
M  V30 END BOND
M  V30 BEGIN COLLECTION
M  V30 MDLV30/STERAC1 ATOMS=(1 20)
M  V30 END COLLECTION
M  V30 END CTAB
M  END
>  <Molecule Name>


>  <status>
-

>  <cas>
1306760-60-0

>  <name>
M OZANIMOD

>  <ID>
1939

>  <Smiles>
CC(C)Oc(ccc(-c1nc(-c2c(CCC3O)c3ccc2)no1)c1)c1C#N

$$$$

Actelion Java MolfileCreator 2.0

  0  0  0  0  0  0              0 V3000
M  V30 BEGIN CTAB
M  V30 COUNTS 74 78 0 0 0
M  V30 BEGIN ATOM
M  V30 1 O 4.7159 0.6782 0.0 0
M  V30 2 C 5.6847 0.926 0.0 0
M  V30 3 N 5.5711 1.9195 0.0 0
M  V30 4 C 6.0621 0.0 0.0 0 CFG=1
M  V30 5 C 5.7298 2.9069 0.0 0 CFG=2
M  V30 6 N 5.1961 -0.5 0.0 0
M  V30 7 C 6.6754 -0.7898 0.0 0
M  V30 8 C 6.149 3.8148 0.0 0
M  V30 9 C 4.7733 3.1985 0.0 0
M  V30 10 C 5.1961 -1.4999 0.0 0
M  V30 11 C 7.479 -1.385 0.0 0
M  V30 12 O 5.3066 4.3537 0.0 0
M  V30 13 N 6.7976 4.5759 0.0 0
M  V30 14 C 4.0424 2.5159 0.0 0
M  V30 15 O 6.0621 -1.9999 0.0 0
M  V30 16 C 4.3301 -1.9999 0.0 0 CFG=1
M  V30 17 O 6.9989 -2.2621 0.0 0
M  V30 18 N 8.4134 -1.7412 0.0 0
M  V30 19 C 7.6275 5.1338 0.0 0 CFG=2
M  V30 20 N 3.0607 2.706 0.0 0
M  V30 21 C 4.1651 1.5235 0.0 0
M  V30 22 N 3.4641 -1.4999 0.0 0
M  V30 23 C 4.3301 -2.9999 0.0 0
M  V30 24 C 9.4093 -1.8321 0.0 0
M  V30 25 C 8.5771 5.4472 0.0 0
M  V30 26 C 7.1877 6.032 0.0 0
M  V30 27 C 2.5765 1.831 0.0 0
M  V30 28 N 3.2591 1.1002 0.0 0
M  V30 29 C 2.598 -1.9999 0.0 0
M  V30 30 C 3.4641 -3.4999 0.0 0
M  V30 31 C 10.3927 -1.651 0.0 0
M  V30 32 O 8.396 6.4306 0.0 0
M  V30 33 N 9.5761 5.4927 0.0 0
M  V30 34 C 6.1901 6.1002 0.0 0
M  V30 35 O 2.598 -2.9999 0.0 0
M  V30 36 C 1.732 -1.4999 0.0 0
M  V30 37 C 3.4641 -4.4999 0.0 0
M  V30 38 C 11.2909 -1.2113 0.0 0
M  V30 39 C 10.5503 5.267 0.0 0 CFG=2
M  V30 40 C 5.7503 6.9983 0.0 0
M  V30 41 C 5.6321 5.2703 0.0 0
M  V30 42 C 2.598 -4.9999 0.0 0
M  V30 43 C 12.037 -0.5455 0.0 0
M  V30 44 C 11.4274 4.7868 0.0 0
M  V30 45 C 10.9065 6.2014 0.0 0
M  V30 46 C 4.7526 7.0666 0.0 0
M  V30 47 C 4.6344 5.3386 0.0 0
M  V30 48 C 12.5759 0.2967 0.0 0 CFG=1
M  V30 49 O 12.0226 5.5905 0.0 0
M  V30 50 N 12.1425 4.0878 0.0 0
M  V30 51 C 10.2754 6.9771 0.0 0
M  V30 52 C 4.1947 6.2367 0.0 0
M  V30 53 N 12.8676 1.2533 0.0 0
M  V30 54 C 13.4839 -0.1223 0.0 0
M  V30 55 C 12.6425 3.2218 0.0 0 CFG=2
M  V30 56 C 10.6317 7.9115 0.0 0
M  V30 57 C 12.8904 2.253 0.0 0
M  V30 58 O 13.5748 -1.1182 0.0 0
M  V30 59 O 14.3008 0.4542 0.0 0 CHG=-1
M  V30 60 C 13.5686 3.5992 0.0 0
M  V30 61 N 10.0006 8.6872 0.0 0
M  V30 62 O 13.8839 2.3666 0.0 0
M  V30 63 C 13.7048 4.5899 0.0 0
M  V30 64 C 10.3568 9.6216 0.0 0
M  V30 65 C 14.5863 5.0621 0.0 0
M  V30 66 C 12.9833 5.2824 0.0 0
M  V30 67 N 11.3441 9.7803 0.0 0 CHG=1
M  V30 68 N 9.7257 10.3973 0.0 0
M  V30 69 C 14.4096 6.0463 0.0 0
M  V30 70 C 15.527 4.7229 0.0 0
M  V30 71 N 13.419 6.1825 0.0 0
M  V30 72 C 15.1737 6.6914 0.0 0
M  V30 73 C 16.2911 5.368 0.0 0
M  V30 74 C 16.1145 6.3523 0.0 0
M  V30 END ATOM
M  V30 BEGIN BOND
M  V30 1 2 1 2
M  V30 2 1 2 3
M  V30 3 1 4 2
M  V30 4 1 5 3
M  V30 5 1 4 6 CFG=3
M  V30 6 1 4 7
M  V30 7 1 5 8
M  V30 8 1 5 9 CFG=1
M  V30 9 1 6 10
M  V30 10 1 7 11
M  V30 11 2 8 12
M  V30 12 1 8 13
M  V30 13 1 9 14
M  V30 14 2 10 15
M  V30 15 1 16 10
M  V30 16 2 11 17
M  V30 17 1 11 18
M  V30 18 1 19 13
M  V30 19 1 14 20
M  V30 20 2 14 21
M  V30 21 1 16 22 CFG=3
M  V30 22 1 16 23
M  V30 23 1 18 24
M  V30 24 1 19 25
M  V30 25 1 19 26 CFG=1
M  V30 26 1 20 27
M  V30 27 1 21 28
M  V30 28 1 22 29
M  V30 29 1 23 30
M  V30 30 1 24 31
M  V30 31 2 25 32
M  V30 32 1 25 33
M  V30 33 1 26 34
M  V30 34 2 29 35
M  V30 35 1 29 36
M  V30 36 1 30 37
M  V30 37 1 31 38
M  V30 38 1 39 33
M  V30 39 2 34 40
M  V30 40 1 34 41
M  V30 41 1 37 42
M  V30 42 1 38 43
M  V30 43 1 39 44
M  V30 44 1 39 45 CFG=1
M  V30 45 1 40 46
M  V30 46 2 41 47
M  V30 47 1 48 43
M  V30 48 2 44 49
M  V30 49 1 44 50
M  V30 50 1 45 51
M  V30 51 2 46 52
M  V30 52 1 48 53
M  V30 53 1 48 54 CFG=1
M  V30 54 1 55 50
M  V30 55 1 51 56
M  V30 56 1 53 57
M  V30 57 2 54 58
M  V30 58 1 54 59
M  V30 59 1 55 60 CFG=1
M  V30 60 1 56 61
M  V30 61 2 57 62
M  V30 62 1 60 63
M  V30 63 1 61 64
M  V30 64 1 63 65
M  V30 65 2 63 66
M  V30 66 2 64 67
M  V30 67 1 64 68
M  V30 68 2 65 69
M  V30 69 1 65 70
M  V30 70 1 66 71
M  V30 71 1 69 72
M  V30 72 2 70 73
M  V30 73 2 72 74
M  V30 74 2 27 28
M  V30 75 1 47 52
M  V30 76 1 55 57
M  V30 77 1 69 71
M  V30 78 1 73 74
M  V30 END BOND
M  V30 BEGIN COLLECTION
M  V30 MDLV30/STERAC1 ATOMS=(7 4 5 16 19 39 48 55)
M  V30 END COLLECTION
M  V30 END CTAB
M  END
>  <Molecule Name>


>  <status>
-

>  <cas>
189691-06-3

>  <name>
BREMELANOTIDE

>  <ID>
1940

>  <Smiles>
CCCC[C@@H](C(N[C@@H](CC(NCCCC[C@H](C([O-])=O)NC([C@H](Cc1c[nH]c2c1cccc2)NC([C@H](CCCNC(N)=[NH2+])NC([C@H](Cc1ccccc1)NC([C@H](Cc1cnc[nH]1)N1)=O)=O)=O)=O)=O)C1=O)=O)NC(C)=O

$$$$

Actelion Java MolfileCreator 2.0

  0  0  0  0  0  0              0 V3000
M  V30 BEGIN CTAB
M  V30 COUNTS 118 123 0 0 0
M  V30 BEGIN ATOM
M  V30 1 O 41.8405 -0.1361 0.0 0
M  V30 2 C 43.235 0.2456 0.0 0
M  V30 3 N 43.547 1.7137 0.0 0
M  V30 4 C 44.3503 -0.7586 0.0 0 CFG=1
M  V30 5 C 42.4316 2.718 0.0 0 CFG=2
M  V30 6 N 44.1934 -2.2513 0.0 0
M  V30 7 C 45.8184 -0.4466 0.0 0
M  V30 8 C 41.0042 2.2542 0.0 0
M  V30 9 C 42.7437 4.186 0.0 0
M  V30 10 C 42.8936 -3.0017 0.0 0
M  V30 11 C 45.5646 -2.8618 0.0 0
M  V30 12 C 46.5689 -1.7464 0.0 0
M  V30 13 O 39.8888 3.2584 0.0 0
M  V30 14 N 40.8683 0.7861 0.0 0
M  V30 15 C 44.1711 4.6498 0.0 0
M  V30 16 C 41.6283 5.1903 0.0 0
M  V30 17 O 42.8936 -4.5026 0.0 0
M  V30 18 C 41.5938 -2.2513 0.0 0 CFG=1
M  V30 19 N 41.5774 -0.7914 0.0 0
M  V30 20 C 40.294 -3.0017 0.0 0
M  V30 21 C 40.294 0.0 0.0 0
M  V30 22 C 38.9942 -2.2513 0.0 0
M  V30 23 O 40.2379 1.506 0.0 0
M  V30 24 C 38.9942 -0.7504 0.0 0
M  V30 25 C 37.6944 -3.0017 0.0 0
M  V30 26 N 37.6944 0.0 0.0 0
M  V30 27 C 37.6944 -4.5026 0.0 0
M  V30 28 C 36.3946 -0.7504 0.0 0
M  V30 29 N 36.3946 -5.2531 0.0 0
M  V30 30 O 36.3946 -2.2513 0.0 0
M  V30 31 C 35.0948 0.0 0.0 0 CFG=1
M  V30 32 N 33.795 -0.7504 0.0 0
M  V30 33 C 35.0948 1.5008 0.0 0
M  V30 34 C 32.4952 0.0 0.0 0
M  V30 35 C 36.3946 2.2513 0.0 0
M  V30 36 O 32.4952 1.5008 0.0 0
M  V30 37 C 31.1954 -0.7504 0.0 0 CFG=1
M  V30 38 C 36.5515 3.744 0.0 0
M  V30 39 C 37.7657 1.6408 0.0 0
M  V30 40 N 29.8955 0.0 0.0 0
M  V30 41 C 31.1954 -2.2513 0.0 0
M  V30 42 C 38.0196 4.056 0.0 0
M  V30 43 C 35.5472 4.8593 0.0 0
M  V30 44 N 38.77 2.7562 0.0 0
M  V30 45 C 28.5957 -0.7504 0.0 0
M  V30 46 C 32.4952 -3.0017 0.0 0
M  V30 47 C 38.4834 5.4834 0.0 0
M  V30 48 C 36.011 6.2868 0.0 0
M  V30 49 O 28.5957 -2.2513 0.0 0
M  V30 50 C 27.2959 0.0 0.0 0 CFG=2
M  V30 51 C 32.4952 -4.5026 0.0 0
M  V30 52 C 37.4791 6.5988 0.0 0
M  V30 53 N 25.9961 -0.7504 0.0 0
M  V30 54 C 27.2959 1.5008 0.0 0
M  V30 55 N 33.795 -5.2531 0.0 0
M  V30 56 C 25.9961 -2.2513 0.0 0
M  V30 57 C 28.5957 2.2513 0.0 0
M  V30 58 C 33.795 -6.754 0.0 0
M  V30 59 O 27.2959 -3.0017 0.0 0
M  V30 60 C 24.6963 -3.0017 0.0 0 CFG=1
M  V30 61 C 28.5957 3.7522 0.0 0
M  V30 62 C 29.8955 1.5008 0.0 0
M  V30 63 N 32.4952 -7.5044 0.0 0 CHG=1
M  V30 64 N 35.0948 -7.5044 0.0 0
M  V30 65 N 24.6963 -4.5026 0.0 0
M  V30 66 C 23.3965 -2.2513 0.0 0
M  V30 67 C 29.8955 4.5026 0.0 0
M  V30 68 C 31.1954 2.2513 0.0 0
M  V30 69 C 23.3965 -5.2531 0.0 0
M  V30 70 C 23.3965 -0.7504 0.0 0
M  V30 71 C 31.1954 3.7522 0.0 0
M  V30 72 O 22.0967 -4.5026 0.0 0
M  V30 73 C 23.3965 -6.754 0.0 0 CFG=1
M  V30 74 N 22.1823 0.1317 0.0 0
M  V30 75 C 24.6108 0.1317 0.0 0
M  V30 76 N 22.0967 -7.5044 0.0 0
M  V30 77 C 24.6963 -7.5044 0.0 0
M  V30 78 C 22.6461 1.5591 0.0 0
M  V30 79 N 24.147 1.5591 0.0 0
M  V30 80 C 22.0967 -9.0053 0.0 0
M  V30 81 C 24.6963 -9.0053 0.0 0
M  V30 82 O 23.3965 -9.7557 0.0 0
M  V30 83 C 20.7969 -9.7557 0.0 0 CFG=1
M  V30 84 C 25.9961 -9.7557 0.0 0
M  V30 85 N 20.7969 -11.2566 0.0 0
M  V30 86 C 19.4971 -9.0053 0.0 0
M  V30 87 O 27.2959 -9.0053 0.0 0
M  V30 88 O 25.9961 -11.2566 0.0 0 CHG=-1
M  V30 89 C 19.4971 -12.0071 0.0 0
M  V30 90 C 19.4971 -7.5044 0.0 0
M  V30 91 O 18.1973 -11.2566 0.0 0
M  V30 92 C 19.4971 -13.508 0.0 0 CFG=1
M  V30 93 C 18.1973 -6.754 0.0 0
M  V30 94 N 18.1973 -14.2584 0.0 0
M  V30 95 C 20.7969 -14.2584 0.0 0
M  V30 96 C 18.1973 -5.2531 0.0 0
M  V30 97 C 18.1973 -15.7593 0.0 0
M  V30 98 O 20.7969 -15.7593 0.0 0
M  V30 99 O 19.4971 -16.5097 0.0 0
M  V30 100 C 16.8975 -16.5097 0.0 0 CFG=1
M  V30 101 N 16.8975 -18.0106 0.0 0
M  V30 102 C 15.5977 -15.7593 0.0 0
M  V30 103 C 15.5977 -18.7611 0.0 0
M  V30 104 C 15.5977 -14.2584 0.0 0
M  V30 105 O 14.2978 -18.0106 0.0 0
M  V30 106 C 15.5977 -20.262 0.0 0 CFG=1
M  V30 107 C 14.2978 -13.508 0.0 0
M  V30 108 C 16.8975 -13.508 0.0 0
M  V30 109 N 14.2978 -21.0124 0.0 0
M  V30 110 C 16.8975 -21.0124 0.0 0
M  V30 111 C 14.2978 -12.0071 0.0 0
M  V30 112 C 16.8975 -12.0071 0.0 0
M  V30 113 C 14.2978 -22.5133 0.0 0
M  V30 114 O 16.8975 -22.5133 0.0 0
M  V30 115 C 15.5977 -11.2566 0.0 0
M  V30 116 O 15.5977 -23.2637 0.0 0
M  V30 117 C 12.998 -23.2637 0.0 0
M  V30 118 O 15.5977 -9.7557 0.0 0
M  V30 END ATOM
M  V30 BEGIN BOND
M  V30 1 2 1 2
M  V30 2 1 2 3
M  V30 3 1 4 2 CFG=3
M  V30 4 1 5 3 CFG=3
M  V30 5 1 4 6
M  V30 6 1 4 7
M  V30 7 1 5 8
M  V30 8 1 5 9
M  V30 9 1 6 10
M  V30 10 1 6 11
M  V30 11 1 7 12
M  V30 12 2 8 13
M  V30 13 1 8 14
M  V30 14 1 9 15
M  V30 15 1 9 16
M  V30 16 2 10 17
M  V30 17 1 18 10
M  V30 18 1 18 19 CFG=3
M  V30 19 1 18 20
M  V30 20 1 19 21
M  V30 21 1 20 22
M  V30 22 2 21 23
M  V30 23 1 21 24
M  V30 24 1 22 25
M  V30 25 1 24 26
M  V30 26 1 25 27
M  V30 27 1 26 28
M  V30 28 1 27 29
M  V30 29 2 28 30
M  V30 30 1 31 28
M  V30 31 1 31 32 CFG=1
M  V30 32 1 31 33
M  V30 33 1 32 34
M  V30 34 1 33 35
M  V30 35 2 34 36
M  V30 36 1 37 34
M  V30 37 1 35 38
M  V30 38 2 35 39
M  V30 39 1 37 40 CFG=3
M  V30 40 1 37 41
M  V30 41 2 38 42
M  V30 42 1 38 43
M  V30 43 1 39 44
M  V30 44 1 40 45
M  V30 45 1 41 46
M  V30 46 1 42 47
M  V30 47 2 43 48
M  V30 48 2 45 49
M  V30 49 1 50 45
M  V30 50 1 46 51
M  V30 51 2 47 52
M  V30 52 1 50 53 CFG=3
M  V30 53 1 50 54
M  V30 54 1 51 55
M  V30 55 1 53 56
M  V30 56 1 54 57
M  V30 57 1 55 58
M  V30 58 2 56 59
M  V30 59 1 60 56
M  V30 60 2 57 61
M  V30 61 1 57 62
M  V30 62 2 58 63
M  V30 63 1 58 64
M  V30 64 1 60 65 CFG=1
M  V30 65 1 60 66
M  V30 66 1 61 67
M  V30 67 2 62 68
M  V30 68 1 65 69
M  V30 69 1 66 70
M  V30 70 2 67 71
M  V30 71 2 69 72
M  V30 72 1 73 69
M  V30 73 1 70 74
M  V30 74 2 70 75
M  V30 75 1 73 76 CFG=3
M  V30 76 1 73 77
M  V30 77 1 74 78
M  V30 78 1 75 79
M  V30 79 1 76 80
M  V30 80 1 77 81
M  V30 81 2 80 82
M  V30 82 1 83 80
M  V30 83 1 81 84
M  V30 84 1 83 85 CFG=1
M  V30 85 1 83 86
M  V30 86 2 84 87
M  V30 87 1 84 88
M  V30 88 1 85 89
M  V30 89 1 86 90
M  V30 90 2 89 91
M  V30 91 1 92 89
M  V30 92 1 90 93
M  V30 93 1 92 94 CFG=3
M  V30 94 1 92 95
M  V30 95 1 93 96
M  V30 96 1 94 97
M  V30 97 1 95 98
M  V30 98 2 97 99
M  V30 99 1 100 97
M  V30 100 1 100 101 CFG=1
M  V30 101 1 100 102
M  V30 102 1 101 103
M  V30 103 1 102 104
M  V30 104 2 103 105
M  V30 105 1 106 103
M  V30 106 2 104 107
M  V30 107 1 104 108
M  V30 108 1 106 109 CFG=3
M  V30 109 1 106 110
M  V30 110 1 107 111
M  V30 111 2 108 112
M  V30 112 1 109 113
M  V30 113 1 110 114
M  V30 114 2 111 115
M  V30 115 2 113 116
M  V30 116 1 113 117
M  V30 117 1 115 118
M  V30 118 1 11 12
M  V30 119 1 42 44
M  V30 120 1 48 52
M  V30 121 1 68 71
M  V30 122 2 78 79
M  V30 123 1 112 115
M  V30 END BOND
M  V30 BEGIN COLLECTION
M  V30 MDLV30/STERAC1 ATOMS=(12 4 5 18 31 37 50 60 73 83 92 100 106)
M  V30 END COLLECTION
M  V30 END CTAB
M  END
>  <Molecule Name>


>  <status>
-

>  <cas>
75921-69-6

>  <name>
AFAMELANOTIDE

>  <ID>
1941

>  <Smiles>
CCCC[C@@H](C(N[C@@H](CCC([O-])=O)C(N[C@@H](Cc1cnc[nH]1)C(N[C@H](Cc1ccccc1)C(N[C@@H](CCCNC(N)=[NH2+])C(N[C@@H](Cc1c[nH]c2c1cccc2)C(NCC(N[C@@H](CCCCN)C(N(CCC1)[C@@H]1C(N[C@@H](C(C)C)C(N)=O)=O)=O)=O)=O)=O)=O)=O)=O)=O)NC([C@H](CO)NC([C@H](Cc(cc1)ccc1O)NC([C@H](CO)NC(C)=O)=O)=O)=O

$$$$

Actelion Java MolfileCreator 2.0

  0  0  0  0  0  0              0 V3000
M  V30 BEGIN CTAB
M  V30 COUNTS 20 21 0 0 0
M  V30 BEGIN ATOM
M  V30 1 Cl 9.5262 -2.0 0.0 0
M  V30 2 C 8.6602 -1.5 0.0 0
M  V30 3 C 8.6602 -0.5 0.0 0
M  V30 4 C 7.7942 -2.0 0.0 0
M  V30 5 C 7.7942 0.0 0.0 0
M  V30 6 C 6.9282 -1.5 0.0 0
M  V30 7 C 6.9282 -0.5 0.0 0
M  V30 8 C 6.0621 0.0 0.0 0
M  V30 9 C 5.1961 -0.5 0.0 0
M  V30 10 C 4.3301 0.0 0.0 0
M  V30 11 O 3.4641 -0.5 0.0 0
M  V30 12 C 2.598 0.0 0.0 0
M  V30 13 C 1.732 -0.5 0.0 0
M  V30 14 C 0.866 0.0 0.0 0
M  V30 15 N 0.0 -0.5 0.0 0
M  V30 16 C -0.866 0.0 0.0 0
M  V30 17 C 0.0 -1.4999 0.0 0
M  V30 18 C -1.732 -0.4999 0.0 0
M  V30 19 C -0.866 -1.9999 0.0 0
M  V30 20 C -1.732 -1.4999 0.0 0
M  V30 END ATOM
M  V30 BEGIN BOND
M  V30 1 1 1 2
M  V30 2 2 2 3
M  V30 3 1 2 4
M  V30 4 1 3 5
M  V30 5 2 4 6
M  V30 6 2 5 7
M  V30 7 1 7 8
M  V30 8 1 8 9
M  V30 9 1 9 10
M  V30 10 1 10 11
M  V30 11 1 11 12
M  V30 12 1 12 13
M  V30 13 1 13 14
M  V30 14 1 14 15
M  V30 15 1 15 16
M  V30 16 1 15 17
M  V30 17 1 16 18
M  V30 18 1 17 19
M  V30 19 1 18 20
M  V30 20 1 6 7
M  V30 21 1 19 20
M  V30 END BOND
M  V30 END CTAB
M  END
>  <Molecule Name>


>  <status>
-

>  <cas>
362665-56-3

>  <name>
PITOLISANT

>  <ID>
1942

>  <Smiles>
Clc1ccc(CCCOCCCN2CCCCC2)cc1

$$$$

Actelion Java MolfileCreator 2.0

  0  0  0  0  0  0              0 V3000
M  V30 BEGIN CTAB
M  V30 COUNTS 27 29 0 0 0
M  V30 BEGIN ATOM
M  V30 1 F 1.732 1.4999 0.0 0
M  V30 2 C 2.598 1.0 0.0 0
M  V30 3 C 2.598 0.0 0.0 0
M  V30 4 C 3.4641 1.4999 0.0 0
M  V30 5 C 3.4641 -0.5 0.0 0
M  V30 6 C 1.732 -0.5 0.0 0
M  V30 7 C 4.3301 1.0 0.0 0
M  V30 8 F 3.4641 -1.5 0.0 0
M  V30 9 C 4.3301 0.0 0.0 0
M  V30 10 O 1.732 -1.5 0.0 0
M  V30 11 N 0.866 0.0 0.0 0
M  V30 12 F 5.1961 1.5 0.0 0
M  V30 13 C 0.0 -0.5 0.0 0
M  V30 14 N -0.866 0.0 0.0 0
M  V30 15 C 0.0 -1.4999 0.0 0
M  V30 16 C -1.732 -0.4999 0.0 0
M  V30 17 C -0.866 -1.9999 0.0 0
M  V30 18 C -2.598 0.0 0.0 0
M  V30 19 C -1.732 -1.4999 0.0 0
M  V30 20 O -2.598 1.0 0.0 0
M  V30 21 C -3.4641 -0.4999 0.0 0
M  V30 22 C -4.3301 0.0 0.0 0
M  V30 23 C -3.4641 -1.4999 0.0 0
M  V30 24 C -5.1961 -0.4999 0.0 0
M  V30 25 C -4.3301 -1.9999 0.0 0
M  V30 26 N -5.1961 -1.4999 0.0 0
M  V30 27 C -6.0621 -1.9999 0.0 0
M  V30 END ATOM
M  V30 BEGIN BOND
M  V30 1 1 1 2
M  V30 2 2 2 3
M  V30 3 1 2 4
M  V30 4 1 3 5
M  V30 5 1 3 6
M  V30 6 2 4 7
M  V30 7 1 5 8
M  V30 8 2 5 9
M  V30 9 2 6 10
M  V30 10 1 6 11
M  V30 11 1 7 12
M  V30 12 1 11 13
M  V30 13 2 13 14
M  V30 14 1 13 15
M  V30 15 1 14 16
M  V30 16 2 15 17
M  V30 17 1 16 18
M  V30 18 2 16 19
M  V30 19 2 18 20
M  V30 20 1 18 21
M  V30 21 1 21 22
M  V30 22 1 21 23
M  V30 23 1 22 24
M  V30 24 1 23 25
M  V30 25 1 24 26
M  V30 26 1 26 27
M  V30 27 1 7 9
M  V30 28 1 17 19
M  V30 29 1 25 26
M  V30 END BOND
M  V30 END CTAB
M  END
>  <Molecule Name>


>  <status>
-

>  <cas>
439239-90-4

>  <name>
LASMIDITAN

>  <ID>
1943

>  <Smiles>
CN(CC1)CCC1C(c1cccc(NC(c(c(F)cc(F)c2)c2F)=O)n1)=O

$$$$

Actelion Java MolfileCreator 2.0

  0  0  0  0  0  0              0 V3000
M  V30 BEGIN CTAB
M  V30 COUNTS 34 37 0 0 0
M  V30 BEGIN ATOM
M  V30 1 O 8.6602 -4.5 0.0 0
M  V30 2 C 8.6602 -3.5 0.0 0
M  V30 3 O 9.5262 -2.9999 0.0 0 CHG=-1
M  V30 4 C 7.7942 -3.0 0.0 0
M  V30 5 C 7.7942 -2.0 0.0 0
M  V30 6 C 6.9282 -3.4999 0.0 0
M  V30 7 C 6.9282 -1.4999 0.0 0
M  V30 8 C 6.0621 -2.9999 0.0 0
M  V30 9 C 6.0621 -2.0 0.0 0
M  V30 10 C 5.1961 -1.4999 0.0 0
M  V30 11 C 5.1961 -0.5 0.0 0
M  V30 12 C 4.3301 -1.9999 0.0 0
M  V30 13 C 4.3301 0.0 0.0 0
M  V30 14 C 3.4641 -1.5 0.0 0
M  V30 15 C 3.4641 -0.5 0.0 0
M  V30 16 C 4.3301 1.0 0.0 0
M  V30 17 O 2.598 0.0 0.0 0
M  V30 18 C 5.1961 1.5 0.0 0
M  V30 19 C 3.4641 1.5 0.0 0
M  V30 20 C 1.732 -0.5 0.0 0
M  V30 21 C 5.1961 2.5 0.0 0
M  V30 22 C 3.4641 2.5 0.0 0
M  V30 23 C 0.866 0.0 0.0 0
M  V30 24 C 4.3301 3.0 0.0 0
M  V30 25 C 6.0621 3.0 0.0 0
M  V30 26 O 0.0 -0.5 0.0 0
M  V30 27 N 4.3301 4.0 0.0 0
M  V30 28 C 5.5621 3.866 0.0 0
M  V30 29 C 6.9282 3.5 0.0 0
M  V30 30 C 6.5621 2.1339 0.0 0
M  V30 31 C 5.1391 4.5877 0.0 0
M  V30 32 C 3.5211 4.5877 0.0 0
M  V30 33 C 4.8301 5.5388 0.0 0
M  V30 34 C 3.8301 5.5388 0.0 0
M  V30 END ATOM
M  V30 BEGIN BOND
M  V30 1 2 1 2
M  V30 2 1 2 3
M  V30 3 1 2 4
M  V30 4 2 4 5
M  V30 5 1 4 6
M  V30 6 1 5 7
M  V30 7 2 6 8
M  V30 8 2 7 9
M  V30 9 1 9 10
M  V30 10 2 10 11
M  V30 11 1 10 12
M  V30 12 1 11 13
M  V30 13 2 12 14
M  V30 14 2 13 15
M  V30 15 1 13 16
M  V30 16 1 15 17
M  V30 17 2 16 18
M  V30 18 1 16 19
M  V30 19 1 17 20
M  V30 20 1 18 21
M  V30 21 2 19 22
M  V30 22 1 20 23
M  V30 23 2 21 24
M  V30 24 1 21 25
M  V30 25 1 23 26
M  V30 26 1 24 27
M  V30 27 1 25 28
M  V30 28 1 25 29
M  V30 29 1 25 30
M  V30 30 1 27 31
M  V30 31 1 27 32
M  V30 32 1 31 33
M  V30 33 1 32 34
M  V30 34 1 8 9
M  V30 35 1 14 15
M  V30 36 1 22 24
M  V30 37 1 33 34
M  V30 END BOND
M  V30 END CTAB
M  END
>  <Molecule Name>


>  <status>
-

>  <cas>
895542-09-3

>  <name>
TRIFAROTENE

>  <ID>
1944

>  <Smiles>
CC(C)(C)c(cc(cc1)-c(cc(cc2)-c(cc3)ccc3C([O-])=O)c2OCCO)c1N1CCCC1

$$$$

Actelion Java MolfileCreator 2.0

  0  0  0  0  0  0              0 V3000
M  V30 BEGIN CTAB
M  V30 COUNTS 24 23 0 0 0
M  V30 BEGIN ATOM
M  V30 1 O 20.7846 -0.75 0.0 0
M  V30 2 C 19.4856 0.0 0.0 0
M  V30 3 O 19.4856 1.5 0.0 0 CHG=-1
M  V30 4 C 18.1866 -0.75 0.0 0
M  V30 5 C 16.8875 0.0 0.0 0
M  V30 6 C 17.4366 -2.049 0.0 0
M  V30 7 C 18.9366 -2.049 0.0 0
M  V30 8 C 15.5885 -0.75 0.0 0
M  V30 9 C 14.2894 0.0 0.0 0
M  V30 10 C 12.9904 -0.75 0.0 0
M  V30 11 C 11.6913 0.0 0.0 0
M  V30 12 C 10.3923 -0.75 0.0 0
M  V30 13 O 10.3923 -2.25 0.0 0
M  V30 14 C 9.0933 0.0 0.0 0
M  V30 15 C 7.7942 -0.75 0.0 0
M  V30 16 C 6.4952 0.0 0.0 0
M  V30 17 C 5.1961 -0.75 0.0 0
M  V30 18 C 3.8971 0.0 0.0 0
M  V30 19 C 2.598 -0.75 0.0 0
M  V30 20 C 1.299 0.0 0.0 0
M  V30 21 C 1.848 -2.049 0.0 0
M  V30 22 C 3.348 -2.049 0.0 0
M  V30 23 O 1.299 1.5 0.0 0
M  V30 24 O 0.0 -0.75 0.0 0 CHG=-1
M  V30 END ATOM
M  V30 BEGIN BOND
M  V30 1 2 1 2
M  V30 2 1 2 3
M  V30 3 1 2 4
M  V30 4 1 4 5
M  V30 5 1 4 6
M  V30 6 1 4 7
M  V30 7 1 5 8
M  V30 8 1 8 9
M  V30 9 1 9 10
M  V30 10 1 10 11
M  V30 11 1 11 12
M  V30 12 1 12 13
M  V30 13 1 12 14
M  V30 14 1 14 15
M  V30 15 1 15 16
M  V30 16 1 16 17
M  V30 17 1 17 18
M  V30 18 1 18 19
M  V30 19 1 19 20
M  V30 20 1 19 21
M  V30 21 1 19 22
M  V30 22 2 20 23
M  V30 23 1 20 24
M  V30 END BOND
M  V30 END CTAB
M  END
>  <Molecule Name>


>  <status>
-

>  <cas>
738606-46-7

>  <name>
BEMPEDOIC ACID

>  <ID>
1945

>  <Smiles>
CC(C)(CCCCCC(CCCCCC(C)(C)C([O-])=O)O)C([O-])=O

$$$$

Actelion Java MolfileCreator 2.0

  0  0  0  0  0  0              0 V3000
M  V30 BEGIN CTAB
M  V30 COUNTS 35 38 0 0 0
M  V30 BEGIN ATOM
M  V30 1 S 1.732 2.4999 0.0 0
M  V30 2 C 2.598 3.0 0.0 0 CFG=2
M  V30 3 C 1.732 1.4999 0.0 0
M  V30 4 C 2.598 3.9999 0.0 0 CFG=1
M  V30 5 C 3.4641 2.4999 0.0 0
M  V30 6 C 0.866 0.9999 0.0 0
M  V30 7 O 1.732 4.4999 0.0 0
M  V30 8 C 3.4641 4.4999 0.0 0
M  V30 9 C 4.3301 2.9999 0.0 0
M  V30 10 O 0.0 1.5 0.0 0
M  V30 11 O 0.866 0.0 0.0 0
M  V30 12 C 4.3301 3.9999 0.0 0 CFG=2
M  V30 13 C 0.0 -0.5 0.0 0 CFG=2
M  V30 14 N 5.1961 4.4999 0.0 0
M  V30 15 C 0.1191 -1.5522 0.0 0 CFG=1
M  V30 16 C -0.8042 0.0942 0.0 0
M  V30 17 C 0.6347 -2.409 0.0 0 CFG=2
M  V30 18 C -0.8807 -1.5704 0.0 0 CFG=1
M  V30 19 C 1.066 -1.2308 0.0 0
M  V30 20 C -1.8486 -0.0426 0.0 0 CFG=2
M  V30 21 C 0.1505 -3.284 0.0 0
M  V30 22 C 1.6346 -2.3908 0.0 0
M  V30 23 C -1.5632 -0.8395 0.0 0
M  V30 24 C -1.3648 -2.4453 0.0 0 CFG=1
M  V30 25 C -2.3088 0.8025 0.0 0
M  V30 26 C -2.4022 -0.8133 0.0 0 CFG=1
M  V30 27 C -1.3672 0.8504 0.0 0
M  V30 28 C -0.8492 -3.3021 0.0 0
M  V30 29 O -1.3487 0.1807 0.0 0
M  V30 30 C -2.5342 -1.3003 0.0 0
M  V30 31 C -2.1608 -1.8268 0.0 0 CFG=1
M  V30 32 C -2.3409 -2.3118 0.0 0
M  V30 33 C -1.8246 1.6774 0.0 0
M  V30 34 O -3.3579 -0.6173 0.0 0
M  V30 35 C -3.0861 -2.3786 0.0 0
M  V30 END ATOM
M  V30 BEGIN BOND
M  V30 1 1 2 1 CFG=3
M  V30 2 1 1 3
M  V30 3 1 4 2
M  V30 4 1 2 5
M  V30 5 1 3 6
M  V30 6 1 4 7 CFG=1
M  V30 7 1 4 8
M  V30 8 1 5 9
M  V30 9 2 6 10
M  V30 10 1 6 11
M  V30 11 1 12 8
M  V30 12 1 13 11 CFG=3
M  V30 13 1 12 14 CFG=1
M  V30 14 1 15 13
M  V30 15 1 13 16
M  V30 16 1 17 15
M  V30 17 1 18 15
M  V30 18 1 15 19 CFG=3
M  V30 19 1 20 16
M  V30 20 1 17 21
M  V30 21 1 17 22 CFG=1
M  V30 22 1 18 23 CFG=3
M  V30 23 1 24 18
M  V30 24 1 20 25
M  V30 25 1 26 20
M  V30 26 1 20 27 CFG=3
M  V30 27 1 21 28
M  V30 28 2 23 29
M  V30 29 1 23 30
M  V30 30 1 31 24
M  V30 31 1 24 32 CFG=3
M  V30 32 2 25 33
M  V30 33 1 26 34 CFG=1
M  V30 34 1 31 35 CFG=3
M  V30 35 1 9 12
M  V30 36 1 24 28
M  V30 37 1 26 31
M  V30 38 1 30 32
M  V30 END BOND
M  V30 BEGIN COLLECTION
M  V30 MDLV30/STERAC1 ATOMS=(11 2 4 12 13 15 17 18 20 24 26 31)
M  V30 END COLLECTION
M  V30 END CTAB
M  END
>  <Molecule Name>


>  <status>
-

>  <cas>
1061337-51-6

>  <name>
LEFAMULIN

>  <ID>
1946

>  <Smiles>
C[C@@H](CC[C@](CC1)([C@@H]2C1=O)[C@H](C)[C@H]([C@](C)(C1)C=C)O)[C@]2(C)[C@H]1OC(CS[C@@H](CC[C@@H](C1)N)[C@H]1O)=O

$$$$

Actelion Java MolfileCreator 2.0

  0  0  0  0  0  0              0 V3000
M  V30 BEGIN CTAB
M  V30 COUNTS 27 30 0 0 0
M  V30 BEGIN ATOM
M  V30 1 F 3.9641 0.366 0.0 0
M  V30 2 C 3.4641 -0.5 0.0 0
M  V30 3 F 4.3301 -0.9999 0.0 0
M  V30 4 F 2.9641 -1.366 0.0 0
M  V30 5 C 2.598 0.0 0.0 0
M  V30 6 N 1.732 -0.5 0.0 0
M  V30 7 C 0.866 0.0 0.0 0
M  V30 8 O 0.866 1.0 0.0 0
M  V30 9 N 0.0 -0.5 0.0 0
M  V30 10 C -0.9135 -0.0932 0.0 0
M  V30 11 C -0.1045 -1.4945 0.0 0
M  V30 12 C -1.5826 -0.8364 0.0 0 CFG=1
M  V30 13 C -1.0826 -1.7024 0.0 0 CFG=2
M  V30 14 C -2.5771 -0.7318 0.0 0
M  V30 15 C -1.4894 -2.6159 0.0 0
M  V30 16 N -3.0771 0.1341 0.0 0
M  V30 17 C -3.2463 -1.475 0.0 0
M  V30 18 C -0.9016 -3.4249 0.0 0
M  V30 19 C -4.0553 -0.0737 0.0 0
M  V30 20 C -2.7681 1.0852 0.0 0
M  V30 21 N -4.1598 -1.0682 0.0 0
M  V30 22 C -4.7244 0.6693 0.0 0
M  V30 23 C -3.4373 1.8283 0.0 0
M  V30 24 C -1.8546 1.4919 0.0 0
M  V30 25 N -4.4154 1.6204 0.0 0
M  V30 26 N -2.9373 2.6943 0.0 0
M  V30 27 C -1.9591 2.4864 0.0 0
M  V30 END ATOM
M  V30 BEGIN BOND
M  V30 1 1 1 2
M  V30 2 1 2 3
M  V30 3 1 2 4
M  V30 4 1 2 5
M  V30 5 1 5 6
M  V30 6 1 6 7
M  V30 7 2 7 8
M  V30 8 1 7 9
M  V30 9 1 9 10
M  V30 10 1 9 11
M  V30 11 1 12 10
M  V30 12 1 13 11
M  V30 13 1 12 14 CFG=1
M  V30 14 1 13 15 CFG=1
M  V30 15 1 14 16
M  V30 16 2 14 17
M  V30 17 1 15 18
M  V30 18 1 16 19
M  V30 19 1 16 20
M  V30 20 1 17 21
M  V30 21 1 19 22
M  V30 22 2 20 23
M  V30 23 1 20 24
M  V30 24 2 22 25
M  V30 25 1 23 26
M  V30 26 2 24 27
M  V30 27 1 12 13
M  V30 28 2 19 21
M  V30 29 1 23 25
M  V30 30 1 26 27
M  V30 END BOND
M  V30 BEGIN COLLECTION
M  V30 MDLV30/STERAC1 ATOMS=(2 12 13)
M  V30 END COLLECTION
M  V30 END CTAB
M  END
>  <Molecule Name>


>  <status>
-

>  <cas>
1310726-60-3

>  <name>
UPADACITINIB

>  <ID>
1947

>  <Smiles>
CC[C@H](CN(C1)C(NCC(F)(F)F)=O)[C@H]1c1cnc2n1c(cc[nH]1)c1nc2

$$$$

Actelion Java MolfileCreator 2.0

  0  0  0  0  0  0              0 V3000
M  V30 BEGIN CTAB
M  V30 COUNTS 42 46 0 0 0
M  V30 BEGIN ATOM
M  V30 1 O 2.598 -1.9999 0.0 0
M  V30 2 C 3.4641 -1.4999 0.0 0
M  V30 3 N 4.3301 -1.9999 0.0 0
M  V30 4 C 3.4641 -0.5 0.0 0
M  V30 5 C 5.1961 -1.4999 0.0 0
M  V30 6 C 4.3301 0.0 0.0 0
M  V30 7 C 2.598 0.0 0.0 0
M  V30 8 C 5.1961 -0.4999 0.0 0
M  V30 9 C 6.0621 -1.9999 0.0 0
M  V30 10 C 4.3301 1.0 0.0 0
M  V30 11 N 1.732 -0.5 0.0 0
M  V30 12 C 0.866 0.0 0.0 0
M  V30 13 O 0.866 1.0 0.0 0
M  V30 14 C 0.0 -0.5 0.0 0
M  V30 15 C -0.866 0.0 0.0 0
M  V30 16 C 0.0 -1.4999 0.0 0
M  V30 17 C -1.732 -0.4999 0.0 0
M  V30 18 C -0.866 1.0 0.0 0
M  V30 19 C -0.866 -1.9999 0.0 0
M  V30 20 N -2.598 0.0 0.0 0
M  V30 21 C -1.732 -1.4999 0.0 0
M  V30 22 C -0.866 -2.9999 0.0 0
M  V30 23 C -3.4641 -0.4999 0.0 0
M  V30 24 C -2.598 1.0 0.0 0
M  V30 25 C -1.732 -3.4999 0.0 0
M  V30 26 C 0.0 -3.4999 0.0 0
M  V30 27 C -4.3301 0.0 0.0 0
M  V30 28 C -3.4641 -1.4999 0.0 0
M  V30 29 C -3.4641 1.5 0.0 0
M  V30 30 C -1.732 -4.4999 0.0 0
M  V30 31 C 0.0 -4.4999 0.0 0
M  V30 32 C -5.1961 -0.4999 0.0 0
M  V30 33 C -4.3301 -1.9999 0.0 0
M  V30 34 C -0.866 -4.9999 0.0 0
M  V30 35 O -5.1961 -1.4999 0.0 0
M  V30 36 C -0.866 -5.9999 0.0 0
M  V30 37 N 0.0 -6.4999 0.0 0
M  V30 38 C 0.0 -7.4999 0.0 0
M  V30 39 C 0.866 -6.0 0.0 0
M  V30 40 C 0.866 -8.0 0.0 0
M  V30 41 C 1.732 -6.5 0.0 0
M  V30 42 O 1.732 -7.5 0.0 0
M  V30 END ATOM
M  V30 BEGIN BOND
M  V30 1 2 1 2
M  V30 2 1 2 3
M  V30 3 1 2 4
M  V30 4 1 3 5
M  V30 5 2 4 6
M  V30 6 1 4 7
M  V30 7 2 5 8
M  V30 8 1 5 9
M  V30 9 1 6 10
M  V30 10 1 7 11
M  V30 11 1 11 12
M  V30 12 2 12 13
M  V30 13 1 12 14
M  V30 14 2 14 15
M  V30 15 1 14 16
M  V30 16 1 15 17
M  V30 17 1 15 18
M  V30 18 2 16 19
M  V30 19 1 17 20
M  V30 20 2 17 21
M  V30 21 1 19 22
M  V30 22 1 20 23
M  V30 23 1 20 24
M  V30 24 2 22 25
M  V30 25 1 22 26
M  V30 26 1 23 27
M  V30 27 1 23 28
M  V30 28 1 24 29
M  V30 29 1 25 30
M  V30 30 2 26 31
M  V30 31 1 27 32
M  V30 32 1 28 33
M  V30 33 2 30 34
M  V30 34 1 32 35
M  V30 35 1 34 36
M  V30 36 1 36 37
M  V30 37 1 37 38
M  V30 38 1 37 39
M  V30 39 1 38 40
M  V30 40 1 39 41
M  V30 41 1 40 42
M  V30 42 1 6 8
M  V30 43 1 19 21
M  V30 44 1 31 34
M  V30 45 1 33 35
M  V30 46 1 41 42
M  V30 END BOND
M  V30 END CTAB
M  END
>  <Molecule Name>


>  <status>
-

>  <cas>
1403254-99-8

>  <name>
TAZEMETOSTAT

>  <ID>
1948

>  <Smiles>
CCN(C1CCOCC1)c1cc(-c2ccc(CN3CCOCC3)cc2)cc(C(NCC2=C(C)C=C(C)NC2=O)=O)c1C

$$$$

Actelion Java MolfileCreator 2.0

  0  0  0  0  0  0              0 V3000
M  V30 BEGIN CTAB
M  V30 COUNTS 40 45 0 0 0
M  V30 BEGIN ATOM
M  V30 1 F 3.8301 3.866 0.0 0
M  V30 2 C 4.3301 3.0 0.0 0
M  V30 3 F 5.1961 3.5 0.0 0
M  V30 4 F 4.8301 2.1339 0.0 0
M  V30 5 C 3.4641 2.5 0.0 0
M  V30 6 N 3.4641 1.5 0.0 0
M  V30 7 C 2.598 1.0 0.0 0
M  V30 8 C 4.3301 1.0 0.0 0 CFG=1
M  V30 9 O 1.732 1.5 0.0 0
M  V30 10 C 2.598 0.0 0.0 0 CFG=1
M  V30 11 C 4.3301 0.0 0.0 0 CFG=1
M  V30 12 C 5.1961 1.5 0.0 0
M  V30 13 N 1.732 -0.5 0.0 0
M  V30 14 C 3.4641 -0.4999 0.0 0
M  V30 15 C 5.1961 -0.5 0.0 0
M  V30 16 C 0.866 0.0 0.0 0
M  V30 17 C 5.1961 -1.5 0.0 0
M  V30 18 C 6.0621 0.0 0.0 0
M  V30 19 O 0.866 1.0 0.0 0
M  V30 20 C 0.0 -0.5 0.0 0
M  V30 21 C 6.0621 -2.0 0.0 0
M  V30 22 C 6.9282 -0.4999 0.0 0
M  V30 23 C -0.866 0.0 0.0 0
M  V30 24 C 0.0 -1.4999 0.0 0
M  V30 25 C 6.9282 -1.4999 0.0 0
M  V30 26 N -1.732 -0.4999 0.0 0
M  V30 27 C -0.866 -1.9999 0.0 0
M  V30 28 C -1.732 -1.4999 0.0 0
M  V30 29 C -1.0739 -2.9781 0.0 0
M  V30 30 C -2.4751 -2.1691 0.0 0
M  V30 31 C -2.0684 -3.0826 0.0 0 CFG=1
M  V30 32 C -3.0629 -3.1872 0.0 0
M  V30 33 C -1.6617 -3.9962 0.0 0
M  V30 34 O -3.7321 -2.444 0.0 0
M  V30 35 N -3.2708 -4.1653 0.0 0
M  V30 36 C -2.4048 -4.6653 0.0 0
M  V30 37 C -0.7106 -4.3052 0.0 0
M  V30 38 N -2.1969 -5.6434 0.0 0
M  V30 39 C -0.5027 -5.2833 0.0 0
M  V30 40 C -1.2458 -5.9525 0.0 0
M  V30 END ATOM
M  V30 BEGIN BOND
M  V30 1 1 1 2
M  V30 2 1 2 3
M  V30 3 1 2 4
M  V30 4 1 2 5
M  V30 5 1 5 6
M  V30 6 1 6 7
M  V30 7 1 8 6
M  V30 8 2 7 9
M  V30 9 1 10 7
M  V30 10 1 11 8
M  V30 11 1 8 12 CFG=3
M  V30 12 1 10 13 CFG=3
M  V30 13 1 10 14
M  V30 14 1 11 15 CFG=3
M  V30 15 1 13 16
M  V30 16 2 15 17
M  V30 17 1 15 18
M  V30 18 2 16 19
M  V30 19 1 16 20
M  V30 20 1 17 21
M  V30 21 2 18 22
M  V30 22 2 20 23
M  V30 23 1 20 24
M  V30 24 2 21 25
M  V30 25 1 23 26
M  V30 26 2 24 27
M  V30 27 2 26 28
M  V30 28 1 27 29
M  V30 29 1 28 30
M  V30 30 1 31 29 CFG=3
M  V30 31 1 31 32
M  V30 32 1 31 33
M  V30 33 2 32 34
M  V30 34 1 32 35
M  V30 35 2 33 36
M  V30 36 1 33 37
M  V30 37 1 36 38
M  V30 38 2 37 39
M  V30 39 2 38 40
M  V30 40 1 11 14
M  V30 41 1 22 25
M  V30 42 1 27 28
M  V30 43 1 30 31
M  V30 44 1 35 36
M  V30 45 1 39 40
M  V30 END BOND
M  V30 BEGIN COLLECTION
M  V30 MDLV30/STERAC1 ATOMS=(4 8 10 11 31)
M  V30 END COLLECTION
M  V30 END CTAB
M  END
>  <Molecule Name>


>  <status>
-

>  <cas>
1374248-77-7

>  <name>
UBROGEPANT

>  <ID>
1949

>  <Smiles>
C[C@H]([C@@H](C[C@@H]1NC(c2cnc(C[C@@](C3)(c4c(N5)nccc4)C5=O)c3c2)=O)c2ccccc2)N(CC(F)(F)F)C1=O

$$$$

Actelion Java MolfileCreator 2.0

  0  0  0  0  0  0              0 V3000
M  V30 BEGIN CTAB
M  V30 COUNTS 74 79 0 0 0
M  V30 BEGIN ATOM
M  V30 1 Cl 44.1673 8.25 0.0 0
M  V30 2 C 44.1673 6.75 0.0 0
M  V30 3 C 42.8683 6.0 0.0 0
M  V30 4 C 45.4663 6.0 0.0 0
M  V30 5 C 42.8683 4.5 0.0 0
M  V30 6 C 41.5692 6.75 0.0 0
M  V30 7 C 45.4663 4.5 0.0 0
M  V30 8 C 44.1673 3.75 0.0 0
M  V30 9 C 41.5692 3.75 0.0 0 CFG=2
M  V30 10 N 40.2702 6.0 0.0 0
M  V30 11 Cl 46.7654 3.75 0.0 0
M  V30 12 C 41.5692 2.25 0.0 0
M  V30 13 C 40.2702 4.5 0.0 0
M  V30 14 C 38.9711 6.75 0.0 0
M  V30 15 C 40.2702 1.5 0.0 0
M  V30 16 C 42.8683 1.5 0.0 0
M  V30 17 C 40.2702 0.0 0.0 0
M  V30 18 C 42.8683 0.0 0.0 0
M  V30 19 S 38.9711 -0.75 0.0 0
M  V30 20 C 41.5692 -0.75 0.0 0
M  V30 21 O 38.2211 -2.049 0.0 0
M  V30 22 O 39.7211 -2.049 0.0 0
M  V30 23 N 37.6721 0.0 0.0 0
M  V30 24 C 36.3731 -0.75 0.0 0
M  V30 25 C 35.074 0.0 0.0 0
M  V30 26 O 33.775 -0.75 0.0 0
M  V30 27 C 32.4759 0.0 0.0 0
M  V30 28 C 31.1769 -0.75 0.0 0
M  V30 29 O 29.8779 0.0 0.0 0
M  V30 30 C 28.5788 -0.75 0.0 0
M  V30 31 C 27.2798 0.0 0.0 0
M  V30 32 N 25.9807 -0.75 0.0 0
M  V30 33 C 24.6817 0.0 0.0 0
M  V30 34 O 24.6817 1.5 0.0 0
M  V30 35 N 23.3827 -0.75 0.0 0
M  V30 36 C 22.0836 0.0 0.0 0
M  V30 37 C 20.7846 -0.75 0.0 0
M  V30 38 C 19.4855 0.0 0.0 0
M  V30 39 C 18.1865 -0.75 0.0 0
M  V30 40 N 16.8875 0.0 0.0 0
M  V30 41 C 15.5884 -0.75 0.0 0
M  V30 42 O 15.5884 -2.25 0.0 0
M  V30 43 N 14.2894 0.0 0.0 0
M  V30 44 C 12.9903 -0.75 0.0 0
M  V30 45 C 11.6913 0.0 0.0 0
M  V30 46 O 10.3923 -0.75 0.0 0
M  V30 47 C 9.0932 0.0 0.0 0
M  V30 48 C 7.7942 -0.75 0.0 0
M  V30 49 O 6.4951 0.0 0.0 0
M  V30 50 C 5.1961 -0.75 0.0 0
M  V30 51 C 3.8971 0.0 0.0 0
M  V30 52 N 2.598 -0.75 0.0 0
M  V30 53 S 1.299 0.0 0.0 0
M  V30 54 O 2.049 1.299 0.0 0
M  V30 55 O 0.549 1.299 0.0 0
M  V30 56 C 0.0 -0.75 0.0 0
M  V30 57 C -1.299 0.0 0.0 0
M  V30 58 C 0.0 -2.25 0.0 0
M  V30 59 C -2.598 -0.75 0.0 0
M  V30 60 C -1.299 -3.0 0.0 0
M  V30 61 C -2.598 -2.25 0.0 0
M  V30 62 C -3.8971 0.0 0.0 0 CFG=1
M  V30 63 C -3.8971 1.5 0.0 0
M  V30 64 C -5.1961 -0.75 0.0 0
M  V30 65 C -5.1961 2.25 0.0 0
M  V30 66 C -2.598 2.25 0.0 0
M  V30 67 N -6.4951 0.0 0.0 0
M  V30 68 C -5.1961 3.75 0.0 0
M  V30 69 C -6.4951 1.5 0.0 0
M  V30 70 C -2.598 3.75 0.0 0
M  V30 71 C -7.7942 -0.75 0.0 0
M  V30 72 Cl -6.4951 4.5 0.0 0
M  V30 73 C -3.8971 4.5 0.0 0
M  V30 74 Cl -1.299 4.5 0.0 0
M  V30 END ATOM
M  V30 BEGIN BOND
M  V30 1 1 1 2
M  V30 2 2 2 3
M  V30 3 1 2 4
M  V30 4 1 3 5
M  V30 5 1 3 6
M  V30 6 2 4 7
M  V30 7 2 5 8
M  V30 8 1 9 5
M  V30 9 1 6 10
M  V30 10 1 7 11
M  V30 11 1 9 12 CFG=3
M  V30 12 1 9 13
M  V30 13 1 10 14
M  V30 14 2 12 15
M  V30 15 1 12 16
M  V30 16 1 15 17
M  V30 17 2 16 18
M  V30 18 1 17 19
M  V30 19 2 17 20
M  V30 20 2 19 21
M  V30 21 2 19 22
M  V30 22 1 19 23
M  V30 23 1 23 24
M  V30 24 1 24 25
M  V30 25 1 25 26
M  V30 26 1 26 27
M  V30 27 1 27 28
M  V30 28 1 28 29
M  V30 29 1 29 30
M  V30 30 1 30 31
M  V30 31 1 31 32
M  V30 32 1 32 33
M  V30 33 2 33 34
M  V30 34 1 33 35
M  V30 35 1 35 36
M  V30 36 1 36 37
M  V30 37 1 37 38
M  V30 38 1 38 39
M  V30 39 1 39 40
M  V30 40 1 40 41
M  V30 41 2 41 42
M  V30 42 1 41 43
M  V30 43 1 43 44
M  V30 44 1 44 45
M  V30 45 1 45 46
M  V30 46 1 46 47
M  V30 47 1 47 48
M  V30 48 1 48 49
M  V30 49 1 49 50
M  V30 50 1 50 51
M  V30 51 1 51 52
M  V30 52 1 52 53
M  V30 53 2 53 54
M  V30 54 2 53 55
M  V30 55 1 53 56
M  V30 56 2 56 57
M  V30 57 1 56 58
M  V30 58 1 57 59
M  V30 59 2 58 60
M  V30 60 2 59 61
M  V30 61 1 62 59 CFG=3
M  V30 62 1 62 63
M  V30 63 1 62 64
M  V30 64 2 63 65
M  V30 65 1 63 66
M  V30 66 1 64 67
M  V30 67 1 65 68
M  V30 68 1 65 69
M  V30 69 2 66 70
M  V30 70 1 67 71
M  V30 71 1 68 72
M  V30 72 2 68 73
M  V30 73 1 70 74
M  V30 74 1 7 8
M  V30 75 1 10 13
M  V30 76 1 18 20
M  V30 77 1 60 61
M  V30 78 1 67 69
M  V30 79 1 70 73
M  V30 END BOND
M  V30 BEGIN COLLECTION
M  V30 MDLV30/STERAC1 ATOMS=(2 9 62)
M  V30 END COLLECTION
M  V30 END CTAB
M  END
>  <Molecule Name>


>  <status>
-

>  <cas>
1234423-95-0

>  <name>
TENAPANOR

>  <ID>
1950

>  <Smiles>
CN(C[C@H]1c2cccc(S(NCCOCCOCCNC(NCCCCNC(NCCOCCOCCNS(c3cccc([C@H]4c5cc(Cl)cc(Cl)c5CN(C)C4)c3)(=O)=O)=O)=O)(=O)=O)c2)Cc(c(Cl)c2)c1cc2Cl

$$$$

Actelion Java MolfileCreator 2.0

  0  0  0  0  0  0              0 V3000
M  V30 BEGIN CTAB
M  V30 COUNTS 29 32 0 0 0
M  V30 BEGIN ATOM
M  V30 1 Cl 5.1374 -2.4318 0.0 0
M  V30 2 C 5.8065 -1.6887 0.0 0
M  V30 3 C 6.7847 -1.8966 0.0 0
M  V30 4 C 5.4975 -0.7376 0.0 0
M  V30 5 N 7.4538 -1.1534 0.0 0
M  V30 6 C 6.1667 0.0054 0.0 0
M  V30 7 C 7.1448 -0.2024 0.0 0
M  V30 8 C 6.0621 1.0 0.0 0
M  V30 9 N 7.6448 0.6635 0.0 0
M  V30 10 C 6.9757 1.4067 0.0 0
M  V30 11 C 5.1961 1.5 0.0 0
M  V30 12 C 4.3301 1.0 0.0 0
M  V30 13 C 3.4641 1.5 0.0 0
M  V30 14 C 4.3301 0.0 0.0 0
M  V30 15 N 2.598 0.9999 0.0 0
M  V30 16 C 3.4641 -0.4999 0.0 0
M  V30 17 C 2.598 0.0 0.0 0
M  V30 18 N 1.732 -0.5 0.0 0
M  V30 19 C 0.866 0.0 0.0 0
M  V30 20 C 0.0 -0.5 0.0 0
M  V30 21 C -0.866 0.0 0.0 0
M  V30 22 C 0.0 -1.4999 0.0 0
M  V30 23 N -1.732 -0.4999 0.0 0
M  V30 24 C -0.866 -1.9999 0.0 0
M  V30 25 C -1.732 -1.4999 0.0 0
M  V30 26 C -2.598 -1.9999 0.0 0
M  V30 27 F -2.098 -2.866 0.0 0
M  V30 28 F -3.4641 -2.4999 0.0 0
M  V30 29 F -3.098 -1.1339 0.0 0
M  V30 END ATOM
M  V30 BEGIN BOND
M  V30 1 1 1 2
M  V30 2 2 2 3
M  V30 3 1 2 4
M  V30 4 1 3 5
M  V30 5 2 4 6
M  V30 6 2 5 7
M  V30 7 1 6 8
M  V30 8 1 7 9
M  V30 9 2 8 10
M  V30 10 1 8 11
M  V30 11 1 11 12
M  V30 12 2 12 13
M  V30 13 1 12 14
M  V30 14 1 13 15
M  V30 15 2 14 16
M  V30 16 2 15 17
M  V30 17 1 17 18
M  V30 18 1 18 19
M  V30 19 1 19 20
M  V30 20 2 20 21
M  V30 21 1 20 22
M  V30 22 1 21 23
M  V30 23 2 22 24
M  V30 24 2 23 25
M  V30 25 1 25 26
M  V30 26 1 26 27
M  V30 27 1 26 28
M  V30 28 1 26 29
M  V30 29 1 6 7
M  V30 30 1 9 10
M  V30 31 1 16 17
M  V30 32 1 24 25
M  V30 END BOND
M  V30 END CTAB
M  END
>  <Molecule Name>


>  <status>
-

>  <cas>
1029044-16-3

>  <name>
PEXIDARTINIB

>  <ID>
1951

>  <Smiles>
FC(c1ncc(CNc2ncc(Cc(c3c4)c[nH]c3ncc4Cl)cc2)cc1)(F)F

$$$$

Actelion Java MolfileCreator 2.0

  0  0  0  0  0  0              0 V3000
M  V30 BEGIN CTAB
M  V30 COUNTS 18 18 0 0 0
M  V30 BEGIN ATOM
M  V30 1 O 7.1556 1.6636 0.0 0
M  V30 2 C 7.8987 0.9945 0.0 0
M  V30 3 N 7.7942 0.0 0.0 0
M  V30 4 C 8.8769 1.2024 0.0 0
M  V30 5 C 8.7077 -0.4067 0.0 0
M  V30 6 C 6.9282 -0.5 0.0 0
M  V30 7 C 9.3769 0.3364 0.0 0
M  V30 8 O 8.9156 -1.3848 0.0 0
M  V30 9 C 6.0621 0.0 0.0 0
M  V30 10 O 5.1961 -0.5 0.0 0
M  V30 11 C 4.3301 0.0 0.0 0
M  V30 12 O 4.3301 1.0 0.0 0
M  V30 13 C 3.4641 -0.5 0.0 0
M  V30 14 C 2.598 0.0 0.0 0
M  V30 15 C 1.732 -0.5 0.0 0
M  V30 16 O 1.732 -1.5 0.0 0
M  V30 17 O 0.866 0.0 0.0 0
M  V30 18 C 0.0 -0.5 0.0 0
M  V30 END ATOM
M  V30 BEGIN BOND
M  V30 1 2 1 2
M  V30 2 1 2 3
M  V30 3 1 2 4
M  V30 4 1 3 5
M  V30 5 1 3 6
M  V30 6 1 4 7
M  V30 7 2 5 8
M  V30 8 1 6 9
M  V30 9 1 9 10
M  V30 10 1 10 11
M  V30 11 2 11 12
M  V30 12 1 11 13
M  V30 13 2 13 14
M  V30 14 1 14 15
M  V30 15 2 15 16
M  V30 16 1 15 17
M  V30 17 1 17 18
M  V30 18 1 5 7
M  V30 END BOND
M  V30 END CTAB
M  END
>  <Molecule Name>


>  <status>
-

>  <cas>
1577222-14-0

>  <name>
DIROXIMEL

>  <ID>
1952

>  <Smiles>
COC(/C=C/C(OCCN(C(CC1)=O)C1=O)=O)=O

$$$$

Actelion Java MolfileCreator 2.0

  0  0  0  0  0  0              0 V3000
M  V30 BEGIN CTAB
M  V30 COUNTS 30 33 0 0 0
M  V30 BEGIN ATOM
M  V30 1 F 5.1961 1.5 0.0 0
M  V30 2 C 4.3301 1.0 0.0 0
M  V30 3 C 3.4641 1.5 0.0 0
M  V30 4 C 4.3301 0.0 0.0 0
M  V30 5 N 2.598 0.9999 0.0 0
M  V30 6 C 3.4641 -0.4999 0.0 0
M  V30 7 C 2.598 0.0 0.0 0
M  V30 8 N 1.732 -0.5 0.0 0
M  V30 9 C 0.866 0.0 0.0 0
M  V30 10 O 0.866 1.0 0.0 0
M  V30 11 C 0.0 -0.5 0.0 0 CFG=2
M  V30 12 C -1.0 -0.4999 0.0 0 CFG=2
M  V30 13 C -0.5 -1.366 0.0 0
M  V30 14 C -1.7071 -1.2071 0.0 0
M  V30 15 C -1.866 0.0 0.0 0
M  V30 16 C -2.673 -0.9482 0.0 0
M  V30 17 C -1.4482 -2.173 0.0 0
M  V30 18 O -1.866 1.0 0.0 0
M  V30 19 C -3.3801 -1.6553 0.0 0
M  V30 20 C -2.1553 -2.8801 0.0 0
M  V30 21 C -2.732 1.5 0.0 0
M  V30 22 F -4.346 -1.3965 0.0 0
M  V30 23 C -3.1213 -2.6213 0.0 0
M  V30 24 C -2.732 2.5 0.0 0
M  V30 25 C -3.598 1.0 0.0 0
M  V30 26 N -3.598 3.0 0.0 0
M  V30 27 C -1.866 3.0 0.0 0
M  V30 28 N -4.4641 1.5 0.0 0
M  V30 29 C -4.4641 2.5 0.0 0
M  V30 30 C -5.3301 3.0 0.0 0
M  V30 END ATOM
M  V30 BEGIN BOND
M  V30 1 1 1 2
M  V30 2 2 2 3
M  V30 3 1 2 4
M  V30 4 1 3 5
M  V30 5 2 4 6
M  V30 6 2 5 7
M  V30 7 1 7 8
M  V30 8 1 8 9
M  V30 9 2 9 10
M  V30 10 1 11 9 CFG=1
M  V30 11 1 12 11
M  V30 12 1 11 13
M  V30 13 1 12 14
M  V30 14 1 12 15 CFG=1
M  V30 15 2 14 16
M  V30 16 1 14 17
M  V30 17 1 15 18
M  V30 18 1 16 19
M  V30 19 2 17 20
M  V30 20 1 18 21
M  V30 21 1 19 22
M  V30 22 2 19 23
M  V30 23 2 21 24
M  V30 24 1 21 25
M  V30 25 1 24 26
M  V30 26 1 24 27
M  V30 27 2 25 28
M  V30 28 2 26 29
M  V30 29 1 29 30
M  V30 30 1 6 7
M  V30 31 1 12 13
M  V30 32 1 20 23
M  V30 33 1 28 29
M  V30 END BOND
M  V30 BEGIN COLLECTION
M  V30 MDLV30/STERAC1 ATOMS=(2 11 12)
M  V30 END COLLECTION
M  V30 END CTAB
M  END
>  <Molecule Name>


>  <status>
-

>  <cas>
1369764-02-2

>  <name>
LEMBOREXANT

>  <ID>
1953

>  <Smiles>
Cc(nc(C)nc1)c1OC[C@](C1)([C@H]1C(Nc(cc1)ncc1F)=O)c1cc(F)ccc1

$$$$

Actelion Java MolfileCreator 2.0

  0  0  0  0  0  0              0 V3000
M  V30 BEGIN CTAB
M  V30 COUNTS 28 30 0 0 0
M  V30 BEGIN ATOM
M  V30 1 Cl 8.2153 3.2385 0.0 0
M  V30 2 C 7.2207 3.134 0.0 0
M  V30 3 C 6.633 3.943 0.0 0
M  V30 4 C 6.814 2.2205 0.0 0
M  V30 5 C 7.0397 4.8566 0.0 0
M  V30 6 C 5.6384 3.8385 0.0 0
M  V30 7 C 5.8195 2.1159 0.0 0
M  V30 8 N 7.4464 5.7701 0.0 0
M  V30 9 C 5.2317 2.9249 0.0 0
M  V30 10 C 5.4128 1.2024 0.0 0
M  V30 11 N 4.4346 0.9945 0.0 0
M  V30 12 C 5.9128 0.3364 0.0 0
M  V30 13 N 4.3301 0.0 0.0 0
M  V30 14 C 5.2436 -0.4067 0.0 0
M  V30 15 C 3.4641 -0.5 0.0 0
M  V30 16 C 2.598 0.0 0.0 0 CFG=2
M  V30 17 N 1.732 -0.5 0.0 0
M  V30 18 C 2.598 1.0 0.0 0
M  V30 19 C 0.866 0.0 0.0 0
M  V30 20 O 0.866 1.0 0.0 0
M  V30 21 C 0.0 -0.5 0.0 0
M  V30 22 N -0.9135 -0.0932 0.0 0
M  V30 23 C -0.1045 -1.4945 0.0 0
M  V30 24 N -1.5826 -0.8364 0.0 0
M  V30 25 C -1.0826 -1.7024 0.0 0
M  V30 26 C -1.4894 -2.6159 0.0 0 CFG=1
M  V30 27 O -2.4839 -2.7205 0.0 0
M  V30 28 C -0.9016 -3.4249 0.0 0
M  V30 END ATOM
M  V30 BEGIN BOND
M  V30 1 1 1 2
M  V30 2 2 2 3
M  V30 3 1 2 4
M  V30 4 1 3 5
M  V30 5 1 3 6
M  V30 6 2 4 7
M  V30 7 3 5 8
M  V30 8 2 6 9
M  V30 9 1 7 10
M  V30 10 2 10 11
M  V30 11 1 10 12
M  V30 12 1 11 13
M  V30 13 2 12 14
M  V30 14 1 13 15
M  V30 15 1 16 15
M  V30 16 1 16 17 CFG=3
M  V30 17 1 16 18
M  V30 18 1 17 19
M  V30 19 2 19 20
M  V30 20 1 19 21
M  V30 21 2 21 22
M  V30 22 1 21 23
M  V30 23 1 22 24
M  V30 24 2 23 25
M  V30 25 1 26 25
M  V30 26 1 26 27 CFG=3
M  V30 27 1 26 28
M  V30 28 1 7 9
M  V30 29 1 13 14
M  V30 30 1 24 25
M  V30 END BOND
M  V30 BEGIN COLLECTION
M  V30 MDLV30/STERAC1 ATOMS=(2 16 26)
M  V30 END COLLECTION
M  V30 END CTAB
M  END
>  <Molecule Name>


>  <status>
-

>  <cas>
1297538-32-9

>  <name>
DAROLUTAMIDE

>  <ID>
1954

>  <Smiles>
C[C@H](Cn(cc1)nc1-c(cc1)cc(Cl)c1C#N)NC(c1n[nH]c([C@H](C)O)c1)=O

$$$$

Actelion Java MolfileCreator 2.0

  0  0  0  0  0  0              0 V3000
M  V30 BEGIN CTAB
M  V30 COUNTS 28 30 0 0 0
M  V30 BEGIN ATOM
M  V30 1 Cl 8.2153 3.2385 0.0 0
M  V30 2 C 7.2207 3.134 0.0 0
M  V30 3 C 6.633 3.943 0.0 0
M  V30 4 C 6.814 2.2205 0.0 0
M  V30 5 C 7.0397 4.8566 0.0 0
M  V30 6 C 5.6384 3.8385 0.0 0
M  V30 7 C 5.8195 2.1159 0.0 0
M  V30 8 N 7.4464 5.7701 0.0 0
M  V30 9 C 5.2317 2.9249 0.0 0
M  V30 10 C 5.4128 1.2024 0.0 0
M  V30 11 N 4.4346 0.9945 0.0 0
M  V30 12 C 5.9128 0.3364 0.0 0
M  V30 13 N 4.3301 0.0 0.0 0
M  V30 14 C 5.2436 -0.4067 0.0 0
M  V30 15 C 3.4641 -0.5 0.0 0
M  V30 16 C 2.598 0.0 0.0 0 CFG=1
M  V30 17 N 1.732 -0.5 0.0 0
M  V30 18 C 2.598 1.0 0.0 0
M  V30 19 C 0.866 0.0 0.0 0
M  V30 20 O 0.866 1.0 0.0 0
M  V30 21 C 0.0 -0.5 0.0 0
M  V30 22 N -0.9135 -0.0932 0.0 0
M  V30 23 C -0.1045 -1.4945 0.0 0
M  V30 24 N -1.5826 -0.8364 0.0 0
M  V30 25 C -1.0826 -1.7024 0.0 0
M  V30 26 C -1.4894 -2.6159 0.0 0 CFG=1
M  V30 27 O -2.4839 -2.7205 0.0 0
M  V30 28 C -0.9016 -3.4249 0.0 0
M  V30 END ATOM
M  V30 BEGIN BOND
M  V30 1 1 1 2
M  V30 2 2 2 3
M  V30 3 1 2 4
M  V30 4 1 3 5
M  V30 5 1 3 6
M  V30 6 2 4 7
M  V30 7 3 5 8
M  V30 8 2 6 9
M  V30 9 1 7 10
M  V30 10 2 10 11
M  V30 11 1 10 12
M  V30 12 1 11 13
M  V30 13 2 12 14
M  V30 14 1 13 15
M  V30 15 1 16 15
M  V30 16 1 16 17 CFG=1
M  V30 17 1 16 18
M  V30 18 1 17 19
M  V30 19 2 19 20
M  V30 20 1 19 21
M  V30 21 2 21 22
M  V30 22 1 21 23
M  V30 23 1 22 24
M  V30 24 2 23 25
M  V30 25 1 26 25
M  V30 26 1 26 27 CFG=3
M  V30 27 1 26 28
M  V30 28 1 7 9
M  V30 29 1 13 14
M  V30 30 1 24 25
M  V30 END BOND
M  V30 BEGIN COLLECTION
M  V30 MDLV30/STERAC1 ATOMS=(2 16 26)
M  V30 END COLLECTION
M  V30 END CTAB
M  END
>  <Molecule Name>


>  <status>
-

>  <cas>
1297538-32-9

>  <name>
DAROLUTAMIDE

>  <ID>
1955

>  <Smiles>
C[C@@H](Cn(cc1)nc1-c(cc1)cc(Cl)c1C#N)NC(c1n[nH]c([C@H](C)O)c1)=O

$$$$

Actelion Java MolfileCreator 2.0

  0  0  0  0  0  0              0 V3000
M  V30 BEGIN CTAB
M  V30 COUNTS 28 30 0 0 0
M  V30 BEGIN ATOM
M  V30 1 Cl 8.2153 3.2385 0.0 0
M  V30 2 C 7.2207 3.134 0.0 0
M  V30 3 C 6.633 3.943 0.0 0
M  V30 4 C 6.814 2.2205 0.0 0
M  V30 5 C 7.0397 4.8566 0.0 0
M  V30 6 C 5.6384 3.8385 0.0 0
M  V30 7 C 5.8195 2.1159 0.0 0
M  V30 8 N 7.4464 5.7701 0.0 0
M  V30 9 C 5.2317 2.9249 0.0 0
M  V30 10 C 5.4128 1.2024 0.0 0
M  V30 11 N 4.4346 0.9945 0.0 0
M  V30 12 C 5.9128 0.3364 0.0 0
M  V30 13 N 4.3301 0.0 0.0 0
M  V30 14 C 5.2436 -0.4067 0.0 0
M  V30 15 C 3.4641 -0.5 0.0 0
M  V30 16 C 2.598 0.0 0.0 0 CFG=1
M  V30 17 N 1.732 -0.5 0.0 0
M  V30 18 C 2.598 1.0 0.0 0
M  V30 19 C 0.866 0.0 0.0 0
M  V30 20 O 0.866 1.0 0.0 0
M  V30 21 C 0.0 -0.5 0.0 0
M  V30 22 N -0.9135 -0.0932 0.0 0
M  V30 23 C -0.1045 -1.4945 0.0 0
M  V30 24 N -1.5826 -0.8364 0.0 0
M  V30 25 C -1.0826 -1.7024 0.0 0
M  V30 26 C -1.4894 -2.6159 0.0 0
M  V30 27 O -2.4839 -2.7205 0.0 0
M  V30 28 C -0.9016 -3.4249 0.0 0
M  V30 END ATOM
M  V30 BEGIN BOND
M  V30 1 1 1 2
M  V30 2 2 2 3
M  V30 3 1 2 4
M  V30 4 1 3 5
M  V30 5 1 3 6
M  V30 6 2 4 7
M  V30 7 3 5 8
M  V30 8 2 6 9
M  V30 9 1 7 10
M  V30 10 2 10 11
M  V30 11 1 10 12
M  V30 12 1 11 13
M  V30 13 2 12 14
M  V30 14 1 13 15
M  V30 15 1 16 15
M  V30 16 1 16 17 CFG=1
M  V30 17 1 16 18
M  V30 18 1 17 19
M  V30 19 2 19 20
M  V30 20 1 19 21
M  V30 21 2 21 22
M  V30 22 1 21 23
M  V30 23 1 22 24
M  V30 24 2 23 25
M  V30 25 1 25 26
M  V30 26 2 26 27
M  V30 27 1 26 28
M  V30 28 1 7 9
M  V30 29 1 13 14
M  V30 30 1 24 25
M  V30 END BOND
M  V30 BEGIN COLLECTION
M  V30 MDLV30/STERAC1 ATOMS=(1 16)
M  V30 END COLLECTION
M  V30 END CTAB
M  END
>  <Molecule Name>


>  <status>
-

>  <cas>
1297537-33-7

>  <name>
M DAROLUTAMIDE

>  <ID>
1956

>  <Smiles>
CC(Cn(cc1)nc1-c(cc1)cc(Cl)c1C#N)NC(c1n[nH]c(C(C)=O)c1)=O

$$$$

Actelion Java MolfileCreator 2.0

  0  0  0  0  0  0              0 V3000
M  V30 BEGIN CTAB
M  V30 COUNTS 16 16 0 0 0
M  V30 BEGIN ATOM
M  V30 1 F 4.1961 2.5 0.0 0
M  V30 2 C 5.1961 2.4999 0.0 0
M  V30 3 F 5.1961 3.4999 0.0 0
M  V30 4 F 6.1961 2.4999 0.0 0
M  V30 5 C 5.1961 1.4999 0.0 0
M  V30 6 C 4.3301 1.0 0.0 0
M  V30 7 C 6.0621 0.9999 0.0 0
M  V30 8 C 4.3301 0.0 0.0 0
M  V30 9 C 6.0621 0.0 0.0 0
M  V30 10 C 5.1961 -0.5 0.0 0
M  V30 11 C 3.4641 -0.5 0.0 0
M  V30 12 C 2.598 0.0 0.0 0 CFG=1
M  V30 13 N 1.732 -0.5 0.0 0
M  V30 14 C 2.598 1.0 0.0 0
M  V30 15 C 0.866 0.0 0.0 0
M  V30 16 C 0.0 -0.5 0.0 0
M  V30 END ATOM
M  V30 BEGIN BOND
M  V30 1 1 1 2
M  V30 2 1 2 3
M  V30 3 1 2 4
M  V30 4 1 2 5
M  V30 5 2 5 6
M  V30 6 1 5 7
M  V30 7 1 6 8
M  V30 8 2 7 9
M  V30 9 2 8 10
M  V30 10 1 8 11
M  V30 11 1 12 11
M  V30 12 1 12 13 CFG=1
M  V30 13 1 12 14
M  V30 14 1 13 15
M  V30 15 1 15 16
M  V30 16 1 9 10
M  V30 END BOND
M  V30 BEGIN COLLECTION
M  V30 MDLV30/STERAC1 ATOMS=(1 12)
M  V30 END COLLECTION
M  V30 END CTAB
M  END
>  <Molecule Name>


>  <status>
-

>  <cas>
458-24-2

>  <name>
FENFLURAMINE

>  <ID>
1957

>  <Smiles>
CCNC(C)Cc1cccc(C(F)(F)F)c1

$$$$

Actelion Java MolfileCreator 2.0

  0  0  0  0  0  0              0 V3000
M  V30 BEGIN CTAB
M  V30 COUNTS 16 16 0 0 0
M  V30 BEGIN ATOM
M  V30 1 F 4.1961 2.5 0.0 0
M  V30 2 C 5.1961 2.4999 0.0 0
M  V30 3 F 5.1961 3.4999 0.0 0
M  V30 4 F 6.1961 2.4999 0.0 0
M  V30 5 C 5.1961 1.4999 0.0 0
M  V30 6 C 4.3301 1.0 0.0 0
M  V30 7 C 6.0621 0.9999 0.0 0
M  V30 8 C 4.3301 0.0 0.0 0
M  V30 9 C 6.0621 0.0 0.0 0
M  V30 10 C 5.1961 -0.5 0.0 0
M  V30 11 C 3.4641 -0.5 0.0 0
M  V30 12 C 2.598 0.0 0.0 0 CFG=1
M  V30 13 N 1.732 -0.5 0.0 0
M  V30 14 C 2.598 1.0 0.0 0
M  V30 15 C 0.866 0.0 0.0 0
M  V30 16 C 0.0 -0.5 0.0 0
M  V30 END ATOM
M  V30 BEGIN BOND
M  V30 1 1 1 2
M  V30 2 1 2 3
M  V30 3 1 2 4
M  V30 4 1 2 5
M  V30 5 2 5 6
M  V30 6 1 5 7
M  V30 7 1 6 8
M  V30 8 2 7 9
M  V30 9 2 8 10
M  V30 10 1 8 11
M  V30 11 1 12 11
M  V30 12 1 12 13 CFG=1
M  V30 13 1 12 14
M  V30 14 1 13 15
M  V30 15 1 15 16
M  V30 16 1 9 10
M  V30 END BOND
M  V30 BEGIN COLLECTION
M  V30 MDLV30/STERAC1 ATOMS=(1 12)
M  V30 END COLLECTION
M  V30 END CTAB
M  END
>  <Molecule Name>


>  <status>
-

>  <cas>
458-24-2

>  <name>
FENFLURAMINE

>  <ID>
1958

>  <Smiles>
CCNC(C)Cc1cccc(C(F)(F)F)c1

$$$$

Actelion Java MolfileCreator 2.0

  0  0  0  0  0  0              0 V3000
M  V30 BEGIN CTAB
M  V30 COUNTS 14 14 0 0 0
M  V30 BEGIN ATOM
M  V30 1 F 2.4641 2.5 0.0 0
M  V30 2 C 3.4641 2.5 0.0 0
M  V30 3 F 3.4641 3.5 0.0 0
M  V30 4 F 4.4641 2.5 0.0 0
M  V30 5 C 3.4641 1.5 0.0 0
M  V30 6 C 2.598 1.0 0.0 0
M  V30 7 C 4.3301 1.0 0.0 0
M  V30 8 C 2.598 0.0 0.0 0
M  V30 9 C 4.3301 0.0 0.0 0
M  V30 10 C 3.4641 -0.4999 0.0 0
M  V30 11 C 1.732 -0.5 0.0 0
M  V30 12 C 0.866 0.0 0.0 0 CFG=1
M  V30 13 N 0.866 1.0 0.0 0
M  V30 14 C 0.0 -0.5 0.0 0
M  V30 END ATOM
M  V30 BEGIN BOND
M  V30 1 1 1 2
M  V30 2 1 2 3
M  V30 3 1 2 4
M  V30 4 1 2 5
M  V30 5 2 5 6
M  V30 6 1 5 7
M  V30 7 1 6 8
M  V30 8 2 7 9
M  V30 9 2 8 10
M  V30 10 1 8 11
M  V30 11 1 12 11
M  V30 12 1 12 13 CFG=3
M  V30 13 1 12 14
M  V30 14 1 9 10
M  V30 END BOND
M  V30 BEGIN COLLECTION
M  V30 MDLV30/STERAC1 ATOMS=(1 12)
M  V30 END COLLECTION
M  V30 END CTAB
M  END
>  <Molecule Name>


>  <status>
-

>  <cas>
1886-26-6

>  <name>
M FENFLURAMINE

>  <ID>
1959

>  <Smiles>
CC(Cc1cccc(C(F)(F)F)c1)N

$$$$

Actelion Java MolfileCreator 2.0

  0  0  0  0  0  0              0 V3000
M  V30 BEGIN CTAB
M  V30 COUNTS 14 14 0 0 0
M  V30 BEGIN ATOM
M  V30 1 F 2.4641 2.5 0.0 0
M  V30 2 C 3.4641 2.5 0.0 0
M  V30 3 F 3.4641 3.5 0.0 0
M  V30 4 F 4.4641 2.5 0.0 0
M  V30 5 C 3.4641 1.5 0.0 0
M  V30 6 C 2.598 1.0 0.0 0
M  V30 7 C 4.3301 1.0 0.0 0
M  V30 8 C 2.598 0.0 0.0 0
M  V30 9 C 4.3301 0.0 0.0 0
M  V30 10 C 3.4641 -0.4999 0.0 0
M  V30 11 C 1.732 -0.5 0.0 0
M  V30 12 C 0.866 0.0 0.0 0 CFG=1
M  V30 13 N 0.866 1.0 0.0 0
M  V30 14 C 0.0 -0.5 0.0 0
M  V30 END ATOM
M  V30 BEGIN BOND
M  V30 1 1 1 2
M  V30 2 1 2 3
M  V30 3 1 2 4
M  V30 4 1 2 5
M  V30 5 2 5 6
M  V30 6 1 5 7
M  V30 7 1 6 8
M  V30 8 2 7 9
M  V30 9 2 8 10
M  V30 10 1 8 11
M  V30 11 1 12 11
M  V30 12 1 12 13 CFG=3
M  V30 13 1 12 14
M  V30 14 1 9 10
M  V30 END BOND
M  V30 BEGIN COLLECTION
M  V30 MDLV30/STERAC1 ATOMS=(1 12)
M  V30 END COLLECTION
M  V30 END CTAB
M  END
>  <Molecule Name>


>  <status>
-

>  <cas>
1886-26-6

>  <name>
M FENFLURAMINE

>  <ID>
1960

>  <Smiles>
CC(Cc1cccc(C(F)(F)F)c1)N

$$$$

Actelion Java MolfileCreator 2.0

  0  0  0  0  0  0              0 V3000
M  V30 BEGIN CTAB
M  V30 COUNTS 20 23 0 0 0
M  V30 BEGIN ATOM
M  V30 1 F 1.299 0.0 0.0 0
M  V30 2 C 0.0 -0.75 0.0 0
M  V30 3 N -1.299 0.0 0.0 0
M  V30 4 C 0.0 -2.25 0.0 0
M  V30 5 C -2.598 -0.7499 0.0 0
M  V30 6 C -1.299 -2.9999 0.0 0
M  V30 7 C -2.598 -2.2499 0.0 0
M  V30 8 C -3.8971 -2.9999 0.0 0
M  V30 9 C -5.1961 -2.2499 0.0 0
M  V30 10 C -3.8971 -4.4999 0.0 0
M  V30 11 C -6.4951 -2.9999 0.0 0
M  V30 12 C -5.1961 -5.2499 0.0 0
M  V30 13 N -7.9217 -2.5364 0.0 0
M  V30 14 C -6.4951 -4.4999 0.0 0
M  V30 15 C -8.8034 -3.7499 0.0 0
M  V30 16 C -7.9217 -4.9635 0.0 0
M  V30 17 C -10.2952 -3.9067 0.0 0
M  V30 18 C -8.5318 -6.3338 0.0 0
M  V30 19 C -10.9053 -5.2771 0.0 0
M  V30 20 N -10.0236 -6.4906 0.0 0
M  V30 END ATOM
M  V30 BEGIN BOND
M  V30 1 1 1 2
M  V30 2 2 2 3
M  V30 3 1 2 4
M  V30 4 1 3 5
M  V30 5 2 4 6
M  V30 6 2 5 7
M  V30 7 1 7 8
M  V30 8 2 8 9
M  V30 9 1 8 10
M  V30 10 1 9 11
M  V30 11 2 10 12
M  V30 12 1 11 13
M  V30 13 2 11 14
M  V30 14 1 13 15
M  V30 15 1 14 16
M  V30 16 1 15 17
M  V30 17 1 16 18
M  V30 18 2 17 19
M  V30 19 2 18 20
M  V30 20 1 6 7
M  V30 21 1 12 14
M  V30 22 2 15 16
M  V30 23 1 19 20
M  V30 END BOND
M  V30 END CTAB
M  END
>  <Molecule Name>


>  <status>
-

>  <cas>
1522051-90-6

>  <name>
FLORTAUCIPIR

>  <ID>
1961

>  <Smiles>
Fc(cc1)ncc1-c(cc1)cc2c1c(cncc1)c1[nH]2

$$$$

Actelion Java MolfileCreator 2.0

  0  0  0  0  0  0              0 V3000
M  V30 BEGIN CTAB
M  V30 COUNTS 41 44 0 0 0
M  V30 BEGIN ATOM
M  V30 1 S 3.8971 0.0 0.0 0
M  V30 2 O 4.6471 1.299 0.0 0
M  V30 3 O 3.1471 1.299 0.0 0
M  V30 4 N 2.598 -0.75 0.0 0
M  V30 5 C 5.1961 -0.75 0.0 0
M  V30 6 C 1.299 0.0 0.0 0
M  V30 7 C 5.3529 -2.2417 0.0 0
M  V30 8 C 6.5664 -0.1398 0.0 0
M  V30 9 O 1.299 1.5 0.0 0
M  V30 10 C 0.0 -0.75 0.0 0
M  V30 11 N 6.8201 -2.5536 0.0 0
M  V30 12 C 4.2382 -3.2454 0.0 0
M  V30 13 N 7.5701 -1.2546 0.0 0
M  V30 14 C -1.299 0.0 0.0 0
M  V30 15 C 0.0 -2.25 0.0 0
M  V30 16 C 9.0619 -1.0978 0.0 0
M  V30 17 N -2.598 -0.75 0.0 0
M  V30 18 N -1.299 1.5 0.0 0
M  V30 19 C -1.299 -3.0 0.0 0
M  V30 20 C -2.598 -2.25 0.0 0
M  V30 21 C -2.5125 2.3816 0.0 0
M  V30 22 C -0.0855 2.3816 0.0 0
M  V30 23 N -3.8971 -3.0 0.0 0
M  V30 24 C -2.049 3.8082 0.0 0
M  V30 25 C -3.5162 1.2669 0.0 0
M  V30 26 C -3.9797 2.6935 0.0 0
M  V30 27 C -0.549 3.8082 0.0 0 CFG=2
M  V30 28 N -5.2674 -2.3899 0.0 0
M  V30 29 C -4.0539 -4.4917 0.0 0
M  V30 30 C 0.3326 5.0218 0.0 0
M  V30 31 C -6.2711 -3.5046 0.0 0
M  V30 32 C -5.5211 -4.8036 0.0 0
M  V30 33 O -7.7629 -3.3478 0.0 0
M  V30 34 C -8.6446 -4.5613 0.0 0
M  V30 35 C -10.1364 -4.4045 0.0 0
M  V30 36 C -11.018 -5.618 0.0 0
M  V30 37 C -9.9795 -2.9128 0.0 0
M  V30 38 C -11.3499 -3.5229 0.0 0
M  V30 39 F -9.8045 -6.4997 0.0 0
M  V30 40 F -11.8997 -6.8316 0.0 0
M  V30 41 F -12.2316 -4.7364 0.0 0
M  V30 END ATOM
M  V30 BEGIN BOND
M  V30 1 2 1 2
M  V30 2 2 1 3
M  V30 3 1 1 4
M  V30 4 1 1 5
M  V30 5 1 4 6
M  V30 6 1 5 7
M  V30 7 2 5 8
M  V30 8 2 6 9
M  V30 9 1 6 10
M  V30 10 2 7 11
M  V30 11 1 7 12
M  V30 12 1 8 13
M  V30 13 2 10 14
M  V30 14 1 10 15
M  V30 15 1 13 16
M  V30 16 1 14 17
M  V30 17 1 14 18
M  V30 18 2 15 19
M  V30 19 2 17 20
M  V30 20 1 18 21
M  V30 21 1 18 22
M  V30 22 1 20 23
M  V30 23 1 21 24
M  V30 24 1 21 25
M  V30 25 1 21 26
M  V30 26 1 27 22
M  V30 27 1 23 28
M  V30 28 1 23 29
M  V30 29 1 27 30 CFG=3
M  V30 30 2 28 31
M  V30 31 2 29 32
M  V30 32 1 31 33
M  V30 33 1 33 34
M  V30 34 1 34 35
M  V30 35 1 35 36
M  V30 36 1 35 37
M  V30 37 1 35 38
M  V30 38 1 36 39
M  V30 39 1 36 40
M  V30 40 1 36 41
M  V30 41 1 11 13
M  V30 42 1 19 20
M  V30 43 1 24 27
M  V30 44 1 31 32
M  V30 END BOND
M  V30 BEGIN COLLECTION
M  V30 MDLV30/STERAC1 ATOMS=(1 27)
M  V30 END COLLECTION
M  V30 END CTAB
M  END
>  <Molecule Name>


>  <status>
-

>  <cas>
2216712-66-0

>  <name>
ELEXACAFTOR

>  <ID>
1962

>  <Smiles>
CC(CC1(C)C)CN1c(nc(cc1)-n(cc2)nc2OCC(C)(C)C(F)(F)F)c1C(NS(c1cn(C)nc1C)(=O)=O)=O

$$$$

Actelion Java MolfileCreator 2.0

  0  0  0  0  0  0              0 V3000
M  V30 BEGIN CTAB
M  V30 COUNTS 28 31 0 0 0
M  V30 BEGIN ATOM
M  V30 1 Br 7.9772 3.2603 0.0 0
M  V30 2 C 7.4772 2.3943 0.0 0
M  V30 3 C 6.4772 2.3943 0.0 0
M  V30 4 C 7.9772 1.5283 0.0 0
M  V30 5 C 5.9772 1.5283 0.0 0
M  V30 6 C 7.4772 0.6623 0.0 0
M  V30 7 C 4.9884 1.6773 0.0 0
M  V30 8 C 6.4772 0.6623 0.0 0
M  V30 9 N 4.2553 0.9972 0.0 0
M  V30 10 C 4.6936 2.6329 0.0 0
M  V30 11 N 6.1119 -0.2685 0.0 0
M  V30 12 C 4.3301 0.0 0.0 0 CFG=2
M  V30 13 N 5.3738 3.366 0.0 0
M  V30 14 C 3.7187 2.8554 0.0 0
M  V30 15 C 5.1563 -0.5633 0.0 0
M  V30 16 C 6.6875 -1.0862 0.0 0
M  V30 17 C 3.4641 -0.5 0.0 0
M  V30 18 C 5.0791 4.3215 0.0 0
M  V30 19 C 3.424 3.811 0.0 0
M  V30 20 N 5.1414 -1.5632 0.0 0
M  V30 21 C 6.0877 -1.8864 0.0 0
M  V30 22 C 7.6874 -1.1012 0.0 0
M  V30 23 C 2.598 0.0 0.0 0
M  V30 24 C 4.1041 4.544 0.0 0
M  V30 25 C 1.732 -0.5 0.0 0
M  V30 26 O 1.732 -1.5 0.0 0
M  V30 27 O 0.866 0.0 0.0 0
M  V30 28 C 0.0 -0.5 0.0 0
M  V30 END ATOM
M  V30 BEGIN BOND
M  V30 1 1 1 2
M  V30 2 2 2 3
M  V30 3 1 2 4
M  V30 4 1 3 5
M  V30 5 2 4 6
M  V30 6 1 5 7
M  V30 7 2 5 8
M  V30 8 2 7 9
M  V30 9 1 7 10
M  V30 10 1 8 11
M  V30 11 1 12 9
M  V30 12 2 10 13
M  V30 13 1 10 14
M  V30 14 1 11 15
M  V30 15 1 11 16
M  V30 16 1 12 17 CFG=3
M  V30 17 1 13 18
M  V30 18 2 14 19
M  V30 19 2 15 20
M  V30 20 2 16 21
M  V30 21 1 16 22
M  V30 22 1 17 23
M  V30 23 2 18 24
M  V30 24 1 23 25
M  V30 25 2 25 26
M  V30 26 1 25 27
M  V30 27 1 27 28
M  V30 28 1 6 8
M  V30 29 1 12 15
M  V30 30 1 19 24
M  V30 31 1 20 21
M  V30 END BOND
M  V30 BEGIN COLLECTION
M  V30 MDLV30/STERAC1 ATOMS=(1 12)
M  V30 END COLLECTION
M  V30 END CTAB
M  END
>  <Molecule Name>


>  <status>
-

>  <cas>
308242-62-8

>  <name>
REMIMAZOLAM

>  <ID>
1963

>  <Smiles>
Cc1cnc2n1-c(ccc(Br)c1)c1C(c1ncccc1)=NC2CCC(OC)=O

$$$$

Actelion Java MolfileCreator 2.0

  0  0  0  0  0  0              0 V3000
M  V30 BEGIN CTAB
M  V30 COUNTS 31 33 0 0 0
M  V30 BEGIN ATOM
M  V30 1 F 8.6678 1.6064 0.0 0
M  V30 2 C 9.5813 1.1997 0.0 0
M  V30 3 F 9.988 2.1132 0.0 0
M  V30 4 F 10.4948 0.793 0.0 0
M  V30 5 C 9.1746 0.2861 0.0 0
M  V30 6 C 8.18 0.1816 0.0 0
M  V30 7 C 9.7623 -0.5228 0.0 0
M  V30 8 C 7.7733 -0.7318 0.0 0
M  V30 9 C 9.3556 -1.4363 0.0 0
M  V30 10 C 6.7788 -0.8364 0.0 0
M  V30 11 C 8.3611 -1.5408 0.0 0
M  V30 12 C 9.9434 -2.2453 0.0 0
M  V30 13 N 6.1096 -0.0932 0.0 0
M  V30 14 N 6.2788 -1.7024 0.0 0
M  V30 15 F 10.7524 -1.6575 0.0 0
M  V30 16 F 10.5312 -3.0544 0.0 0
M  V30 17 F 9.1344 -2.8331 0.0 0
M  V30 18 N 5.1961 -0.5 0.0 0
M  V30 19 C 5.3006 -1.4945 0.0 0
M  V30 20 C 4.3301 0.0 0.0 0
M  V30 21 C 3.4641 -0.5 0.0 0
M  V30 22 C 3.4641 -1.5 0.0 0
M  V30 23 O 4.3301 -2.0 0.0 0
M  V30 24 N 2.598 -1.9999 0.0 0
M  V30 25 N 2.598 -2.9999 0.0 0
M  V30 26 C 1.732 -3.5 0.0 0
M  V30 27 N 1.732 -4.5 0.0 0
M  V30 28 C 0.866 -3.0 0.0 0
M  V30 29 C 0.866 -5.0 0.0 0
M  V30 30 N 0.0 -3.5 0.0 0
M  V30 31 C 0.0 -4.5 0.0 0
M  V30 END ATOM
M  V30 BEGIN BOND
M  V30 1 1 1 2
M  V30 2 1 2 3
M  V30 3 1 2 4
M  V30 4 1 2 5
M  V30 5 2 5 6
M  V30 6 1 5 7
M  V30 7 1 6 8
M  V30 8 2 7 9
M  V30 9 1 8 10
M  V30 10 2 8 11
M  V30 11 1 9 12
M  V30 12 2 10 13
M  V30 13 1 10 14
M  V30 14 1 12 15
M  V30 15 1 12 16
M  V30 16 1 12 17
M  V30 17 1 13 18
M  V30 18 2 14 19
M  V30 19 1 18 20
M  V30 20 2 20 21
M  V30 21 1 21 22
M  V30 22 2 22 23
M  V30 23 1 22 24
M  V30 24 1 24 25
M  V30 25 1 25 26
M  V30 26 2 26 27
M  V30 27 1 26 28
M  V30 28 1 27 29
M  V30 29 2 28 30
M  V30 30 2 29 31
M  V30 31 1 9 11
M  V30 32 1 18 19
M  V30 33 1 30 31
M  V30 END BOND
M  V30 END CTAB
M  END
>  <Molecule Name>


>  <status>
-

>  <cas>
1393477-72-9

>  <name>
SELINEXOR

>  <ID>
1964

>  <Smiles>
O=C(/C=C\n1nc(-c2cc(C(F)(F)F)cc(C(F)(F)F)c2)nc1)NNc1nccnc1

$$$$

Actelion Java MolfileCreator 2.0

  0  0  0  0  0  0              0 V3000
M  V30 BEGIN CTAB
M  V30 COUNTS 37 40 0 0 0
M  V30 BEGIN ATOM
M  V30 1 S 14.2894 -12.0 0.0 0
M  V30 2 O 15.7894 -12.0 0.0 0
M  V30 3 O 15.0394 -10.7009 0.0 0
M  V30 4 N 14.2894 -13.5 0.0 0
M  V30 5 C 12.9903 -11.25 0.0 0
M  V30 6 C 15.5884 -14.25 0.0 0
M  V30 7 C 12.9903 -9.75 0.0 0
M  V30 8 C 11.6913 -12.0 0.0 0
M  V30 9 C 16.3384 -12.9509 0.0 0
M  V30 10 C 16.8875 -15.0 0.0 0
M  V30 11 C 14.8384 -15.549 0.0 0
M  V30 12 C 11.6913 -9.0 0.0 0
M  V30 13 C 10.3923 -11.25 0.0 0
M  V30 14 N 11.6913 -7.5 0.0 0
M  V30 15 C 10.3923 -9.75 0.0 0
M  V30 16 C 10.3923 -6.75 0.0 0
M  V30 17 N 10.3923 -5.25 0.0 0
M  V30 18 C 9.0932 -7.5 0.0 0
M  V30 19 C 9.0932 -4.5 0.0 0
M  V30 20 C 7.7942 -6.75 0.0 0
M  V30 21 C 9.0932 -9.0 0.0 0
M  V30 22 N 7.7942 -5.25 0.0 0
M  V30 23 N 9.0932 -3.0 0.0 0
M  V30 24 C 7.7942 -2.25 0.0 0
M  V30 25 C 7.7942 -0.75 0.0 0
M  V30 26 C 6.4951 -3.0 0.0 0
M  V30 27 C 6.4951 0.0 0.0 0
M  V30 28 C 5.1961 -2.25 0.0 0
M  V30 29 C 5.1961 -0.75 0.0 0
M  V30 30 O 3.8971 0.0 0.0 0
M  V30 31 C 2.598 -0.75 0.0 0
M  V30 32 C 1.299 0.0 0.0 0
M  V30 33 N 0.0 -0.75 0.0 0
M  V30 34 C -1.3703 -0.1398 0.0 0
M  V30 35 C -0.1567 -2.2417 0.0 0
M  V30 36 C -2.374 -1.2546 0.0 0
M  V30 37 C -1.624 -2.5536 0.0 0
M  V30 END ATOM
M  V30 BEGIN BOND
M  V30 1 2 1 2
M  V30 2 2 1 3
M  V30 3 1 1 4
M  V30 4 1 1 5
M  V30 5 1 4 6
M  V30 6 2 5 7
M  V30 7 1 5 8
M  V30 8 1 6 9
M  V30 9 1 6 10
M  V30 10 1 6 11
M  V30 11 1 7 12
M  V30 12 2 8 13
M  V30 13 1 12 14
M  V30 14 2 12 15
M  V30 15 1 14 16
M  V30 16 2 16 17
M  V30 17 1 16 18
M  V30 18 1 17 19
M  V30 19 2 18 20
M  V30 20 1 18 21
M  V30 21 2 19 22
M  V30 22 1 19 23
M  V30 23 1 23 24
M  V30 24 2 24 25
M  V30 25 1 24 26
M  V30 26 1 25 27
M  V30 27 2 26 28
M  V30 28 2 27 29
M  V30 29 1 29 30
M  V30 30 1 30 31
M  V30 31 1 31 32
M  V30 32 1 32 33
M  V30 33 1 33 34
M  V30 34 1 33 35
M  V30 35 1 34 36
M  V30 36 1 35 37
M  V30 37 1 13 15
M  V30 38 1 20 22
M  V30 39 1 28 29
M  V30 40 1 36 37
M  V30 END BOND
M  V30 END CTAB
M  END
>  <Molecule Name>


>  <status>
-

>  <cas>
936091-26-8

>  <name>
FEDRATINIB

>  <ID>
1965

>  <Smiles>
CC(C)(C)NS(c1cc(Nc2nc(Nc(cc3)ccc3OCCN3CCCC3)ncc2C)ccc1)(=O)=O

$$$$
Cc1c(Cl)c(C)n(=O)c(Cl)c1c3noc(c2cc(O)c(O)c(N(=O)=O)c2)n3
Actelion Java MolfileCreator 2.0

  0  0  0  0  0  0              0 V3000
M  V30 BEGIN CTAB
M  V30 COUNTS 27 29 0 0 0
M  V30 BEGIN ATOM
M  V30 1 Cl 0.109 -4.3297 0.0 0
M  V30 2 C 0.5157 -5.2433 0.0 0
M  V30 3 N -0.072 -6.0523 0.0 0 CHG=1
M  V30 4 C 1.5102 -5.3478 0.0 0
M  V30 5 O -1.0665 -5.9478 0.0 0 CHG=-1
M  V30 6 C 0.3347 -6.9658 0.0 0
M  V30 7 C 1.917 -6.2614 0.0 0
M  V30 8 C 2.098 -4.5388 0.0 0
M  V30 9 C 1.3292 -7.0704 0.0 0
M  V30 10 C -0.253 -7.7749 0.0 0
M  V30 11 C 2.9115 -6.3659 0.0 0
M  V30 12 N 3.098 -4.5388 0.0 0
M  V30 13 N 1.789 -3.5877 0.0 0
M  V30 14 Cl 1.7359 -7.9839 0.0 0
M  V30 15 O 3.407 -3.5877 0.0 0
M  V30 16 C 2.598 -3.0 0.0 0
M  V30 17 C 2.598 -1.9999 0.0 0
M  V30 18 C 3.4641 -1.5 0.0 0
M  V30 19 C 1.732 -1.5 0.0 0
M  V30 20 C 3.4641 -0.5 0.0 0
M  V30 21 C 1.732 -0.5 0.0 0
M  V30 22 O 4.3301 0.0 0.0 0
M  V30 23 C 2.598 0.0 0.0 0
M  V30 24 N 0.866 0.0 0.0 0 CHG=1
M  V30 25 O 2.598 1.0 0.0 0
M  V30 26 O 0.866 1.0 0.0 0
M  V30 27 O 0.0 -0.5 0.0 0 CHG=-1
M  V30 END ATOM
M  V30 BEGIN BOND
M  V30 1 1 1 2
M  V30 2 2 2 3
M  V30 3 1 2 4
M  V30 4 1 3 5
M  V30 5 1 3 6
M  V30 6 2 4 7
M  V30 7 1 4 8
M  V30 8 2 6 9
M  V30 9 1 6 10
M  V30 10 1 7 11
M  V30 11 2 8 12
M  V30 12 1 8 13
M  V30 13 1 9 14
M  V30 14 1 12 15
M  V30 15 2 13 16
M  V30 16 1 16 17
M  V30 17 2 17 18
M  V30 18 1 17 19
M  V30 19 1 18 20
M  V30 20 2 19 21
M  V30 21 1 20 22
M  V30 22 2 20 23
M  V30 23 1 21 24
M  V30 24 1 23 25
M  V30 25 2 24 26
M  V30 26 1 24 27
M  V30 27 1 7 9
M  V30 28 1 15 16
M  V30 29 1 21 23
M  V30 END BOND
M  V30 END CTAB
M  END
>  <Molecule Name>
Cc1c(Cl)c(C)n(=O)c(Cl)c1c3noc(c2cc(O)c(O)c(N(=O)=O)c2)n3

>  <status>
-

>  <cas>
923287-50-7

>  <name>
OPICAPONE

>  <ID>
1966

>  <Smiles>
Cc(c(Cl)c1C)c(-c2noc(-c(cc3[N+]([O-])=O)cc(O)c3O)n2)c(Cl)[n+]1[O-]

$$$$

Actelion Java MolfileCreator 2.0

  0  0  0  0  0  0              0 V3000
M  V30 BEGIN CTAB
M  V30 COUNTS 18 19 0 0 0
M  V30 BEGIN ATOM
M  V30 1 F 4.0652 -4.0454 0.0 0
M  V30 2 C 4.2221 -2.5536 0.0 0
M  V30 3 F 5.4356 -3.4353 0.0 0
M  V30 4 C 4.9721 -1.2546 0.0 0 CFG=2
M  V30 5 C 2.7548 -2.2417 0.0 0 CFG=1
M  V30 6 O 3.9684 -0.1398 0.0 0
M  V30 7 N 6.4638 -1.0978 0.0 0
M  V30 8 O 1.6401 -3.2454 0.0 0
M  V30 9 C 2.598 -0.75 0.0 0 CFG=1
M  V30 10 C 7.3455 -2.3113 0.0 0
M  V30 11 C 7.0739 0.2724 0.0 0
M  V30 12 C 1.299 0.0 0.0 0
M  V30 13 O 6.7354 -3.6816 0.0 0
M  V30 14 N 8.8373 -2.1545 0.0 0
M  V30 15 C 8.5657 0.4292 0.0 0
M  V30 16 O 0.0 -0.75 0.0 0
M  V30 17 C 9.4474 -0.7842 0.0 0 CFG=2
M  V30 18 O 10.9392 -0.6274 0.0 0
M  V30 END ATOM
M  V30 BEGIN BOND
M  V30 1 1 1 2
M  V30 2 1 2 3
M  V30 3 1 4 2
M  V30 4 1 5 2
M  V30 5 1 4 6
M  V30 6 1 4 7 CFG=3
M  V30 7 1 5 8 CFG=1
M  V30 8 1 9 5
M  V30 9 1 7 10
M  V30 10 1 7 11
M  V30 11 1 9 12 CFG=3
M  V30 12 2 10 13
M  V30 13 1 10 14
M  V30 14 1 11 15
M  V30 15 1 12 16
M  V30 16 1 17 14
M  V30 17 1 17 18 CFG=3
M  V30 18 1 6 9
M  V30 19 1 15 17
M  V30 END BOND
M  V30 BEGIN COLLECTION
M  V30 MDLV30/STERAC1 ATOMS=(4 4 5 9 17)
M  V30 END COLLECTION
M  V30 END CTAB
M  END
>  <Molecule Name>


>  <status>
-

>  <cas>
1141397-80-9

>  <name>
CEDAZURIDINE

>  <ID>
1967

>  <Smiles>
OC[C@@H]([C@@H](C1(F)F)O)O[C@@H]1N(CC[C@@H](N1)O)C1=O

$$$$

Actelion Java MolfileCreator 2.0

  0  0  0  0  0  0              0 V3000
M  V30 BEGIN CTAB
M  V30 COUNTS 37 42 0 0 0
M  V30 BEGIN ATOM
M  V30 1 F 6.4951 -3.0 0.0 0
M  V30 2 C 5.1961 -2.25 0.0 0
M  V30 3 C 5.1961 -0.75 0.0 0
M  V30 4 C 3.8971 -3.0 0.0 0
M  V30 5 C 3.8971 0.0 0.0 0
M  V30 6 C 2.598 -2.25 0.0 0
M  V30 7 C 2.598 -0.75 0.0 0
M  V30 8 C 1.299 0.0 0.0 0 CFG=2
M  V30 9 N 2.049 1.299 0.0 0
M  V30 10 C 0.0 -0.75 0.0 0
M  V30 11 C 0.549 1.299 0.0 0
M  V30 12 C -1.299 0.0 0.0 0
M  V30 13 C 0.0 -2.25 0.0 0
M  V30 14 N -2.598 -0.75 0.0 0
M  V30 15 N -1.299 -3.0 0.0 0
M  V30 16 C -2.598 -2.25 0.0 0
M  V30 17 N -3.8971 -3.0 0.0 0
M  V30 18 C -5.1961 -2.25 0.0 0
M  V30 19 C -3.8971 -4.5 0.0 0
M  V30 20 C -6.4951 -3.0 0.0 0
M  V30 21 C -5.1961 -5.25 0.0 0
M  V30 22 N -6.4951 -4.5 0.0 0
M  V30 23 C -7.7942 -5.25 0.0 0
M  V30 24 N -9.0932 -4.5 0.0 0
M  V30 25 C -7.7942 -6.75 0.0 0
M  V30 26 C -10.3923 -5.25 0.0 0
M  V30 27 N -9.0932 -7.5 0.0 0
M  V30 28 C -6.6795 -7.7537 0.0 0
M  V30 29 N -10.3923 -6.75 0.0 0
M  V30 30 C -8.7814 -8.9672 0.0 0
M  V30 31 C -7.2896 -9.124 0.0 0
M  V30 32 C -6.5396 -10.423 0.0 0
M  V30 33 C -7.1497 -11.7933 0.0 0
M  V30 34 C -5.0478 -10.5798 0.0 0
M  V30 35 N -6.035 -12.797 0.0 0
M  V30 36 N -4.7359 -12.047 0.0 0
M  V30 37 C -3.3656 -12.6571 0.0 0
M  V30 END ATOM
M  V30 BEGIN BOND
M  V30 1 1 1 2
M  V30 2 2 2 3
M  V30 3 1 2 4
M  V30 4 1 3 5
M  V30 5 2 4 6
M  V30 6 2 5 7
M  V30 7 1 8 7
M  V30 8 1 8 9 CFG=1
M  V30 9 1 8 10
M  V30 10 1 8 11
M  V30 11 2 10 12
M  V30 12 1 10 13
M  V30 13 1 12 14
M  V30 14 2 13 15
M  V30 15 2 14 16
M  V30 16 1 16 17
M  V30 17 1 17 18
M  V30 18 1 17 19
M  V30 19 1 18 20
M  V30 20 1 19 21
M  V30 21 1 20 22
M  V30 22 1 22 23
M  V30 23 2 23 24
M  V30 24 1 23 25
M  V30 25 1 24 26
M  V30 26 1 25 27
M  V30 27 2 25 28
M  V30 28 2 26 29
M  V30 29 1 27 30
M  V30 30 1 28 31
M  V30 31 1 31 32
M  V30 32 1 32 33
M  V30 33 2 32 34
M  V30 34 2 33 35
M  V30 35 1 34 36
M  V30 36 1 36 37
M  V30 37 1 6 7
M  V30 38 1 15 16
M  V30 39 1 21 22
M  V30 40 1 27 29
M  V30 41 2 30 31
M  V30 42 1 35 36
M  V30 END BOND
M  V30 BEGIN COLLECTION
M  V30 MDLV30/STERAC1 ATOMS=(1 8)
M  V30 END COLLECTION
M  V30 END CTAB
M  END
>  <Molecule Name>


>  <status>
-

>  <cas>
1703793-34-3

>  <name>
AVAPRITINIB

>  <ID>
1968

>  <Smiles>
CC(c(cc1)ccc1F)(c1cnc(N(CC2)CCN2c2ncnn3c2cc(-c2cn(C)nc2)c3)nc1)N

$$$$

Actelion Java MolfileCreator 2.0

  0  0  0  0  0  0              0 V3000
M  V30 BEGIN CTAB
M  V30 COUNTS 41 46 0 0 0
M  V30 BEGIN ATOM
M  V30 1 F 6.3715 8.6247 0.0 0
M  V30 2 C 4.9043 8.3128 0.0 0
M  V30 3 C 3.9006 9.4275 0.0 0
M  V30 4 C 4.4407 6.8862 0.0 0
M  V30 5 C 2.4333 9.1156 0.0 0
M  V30 6 C 2.9735 6.5743 0.0 0
M  V30 7 F 1.4296 10.2304 0.0 0
M  V30 8 C 1.9698 7.6891 0.0 0
M  V30 9 C 2.51 5.1478 0.0 0
M  V30 10 C 3.5137 4.033 0.0 0
M  V30 11 C 3.0502 2.6065 0.0 0
M  V30 12 C 4.9809 4.3449 0.0 0
M  V30 13 C 4.0539 1.4917 0.0 0
M  V30 14 C 5.9846 3.2302 0.0 0
M  V30 15 C 3.8971 0.0 0.0 0
M  V30 16 C 5.5211 1.8036 0.0 0
M  V30 17 N 5.2674 -0.6101 0.0 0
M  V30 18 N 2.598 -0.75 0.0 0
M  V30 19 N 6.2711 0.5046 0.0 0
M  V30 20 C 1.299 0.0 0.0 0
M  V30 21 O 1.299 1.5 0.0 0
M  V30 22 C 0.0 -0.75 0.0 0
M  V30 23 C -1.299 0.0 0.0 0
M  V30 24 C 0.0 -2.2499 0.0 0
M  V30 25 N -1.299 1.5 0.0 0
M  V30 26 C -2.598 -0.7499 0.0 0
M  V30 27 C -1.299 -2.9999 0.0 0
M  V30 28 C -2.598 2.25 0.0 0
M  V30 29 C -2.598 -2.2499 0.0 0
M  V30 30 C -2.598 3.75 0.0 0
M  V30 31 C -3.8971 1.5 0.0 0
M  V30 32 N -3.8971 -2.9999 0.0 0
M  V30 33 C -3.8971 4.5 0.0 0
M  V30 34 C -5.1961 2.25 0.0 0
M  V30 35 C -5.1961 -2.2499 0.0 0
M  V30 36 C -3.8971 -4.4999 0.0 0
M  V30 37 O -5.1961 3.75 0.0 0
M  V30 38 C -6.4951 -2.9999 0.0 0
M  V30 39 C -5.1961 -5.2499 0.0 0
M  V30 40 N -6.4951 -4.4999 0.0 0
M  V30 41 C -7.7942 -5.2499 0.0 0
M  V30 END ATOM
M  V30 BEGIN BOND
M  V30 1 1 1 2
M  V30 2 2 2 3
M  V30 3 1 2 4
M  V30 4 1 3 5
M  V30 5 2 4 6
M  V30 6 1 5 7
M  V30 7 2 5 8
M  V30 8 1 6 9
M  V30 9 1 9 10
M  V30 10 2 10 11
M  V30 11 1 10 12
M  V30 12 1 11 13
M  V30 13 2 12 14
M  V30 14 1 13 15
M  V30 15 2 13 16
M  V30 16 2 15 17
M  V30 17 1 15 18
M  V30 18 1 16 19
M  V30 19 1 18 20
M  V30 20 2 20 21
M  V30 21 1 20 22
M  V30 22 2 22 23
M  V30 23 1 22 24
M  V30 24 1 23 25
M  V30 25 1 23 26
M  V30 26 2 24 27
M  V30 27 1 25 28
M  V30 28 2 26 29
M  V30 29 1 28 30
M  V30 30 1 28 31
M  V30 31 1 29 32
M  V30 32 1 30 33
M  V30 33 1 31 34
M  V30 34 1 32 35
M  V30 35 1 32 36
M  V30 36 1 33 37
M  V30 37 1 35 38
M  V30 38 1 36 39
M  V30 39 1 38 40
M  V30 40 1 40 41
M  V30 41 1 6 8
M  V30 42 1 14 16
M  V30 43 1 17 19
M  V30 44 1 27 29
M  V30 45 1 34 37
M  V30 46 1 39 40
M  V30 END BOND
M  V30 END CTAB
M  END
>  <Molecule Name>


>  <status>
-

>  <cas>
1108743-60-7

>  <name>
ENTRECTINIB

>  <ID>
1969

>  <Smiles>
CN(CC1)CCN1c(cc1)cc(NC2CCOCC2)c1C(Nc1n[nH]c2c1cc(Cc1cc(F)cc(F)c1)cc2)=O

$$$$

Actelion Java MolfileCreator 2.0

  0  0  0  0  0  0              0 V3000
M  V30 BEGIN CTAB
M  V30 COUNTS 40 45 0 0 0
M  V30 BEGIN ATOM
M  V30 1 F 6.3715 8.6247 0.0 0
M  V30 2 C 4.9043 8.3128 0.0 0
M  V30 3 C 3.9006 9.4275 0.0 0
M  V30 4 C 4.4407 6.8862 0.0 0
M  V30 5 C 2.4333 9.1156 0.0 0
M  V30 6 C 2.9735 6.5743 0.0 0
M  V30 7 F 1.4296 10.2304 0.0 0
M  V30 8 C 1.9698 7.6891 0.0 0
M  V30 9 C 2.51 5.1478 0.0 0
M  V30 10 C 3.5137 4.033 0.0 0
M  V30 11 C 3.0502 2.6065 0.0 0
M  V30 12 C 4.9809 4.3449 0.0 0
M  V30 13 C 4.0539 1.4917 0.0 0
M  V30 14 C 5.9846 3.2302 0.0 0
M  V30 15 C 3.8971 0.0 0.0 0
M  V30 16 C 5.5211 1.8036 0.0 0
M  V30 17 N 5.2674 -0.6101 0.0 0
M  V30 18 N 2.598 -0.75 0.0 0
M  V30 19 N 6.2711 0.5046 0.0 0
M  V30 20 C 1.299 0.0 0.0 0
M  V30 21 O 1.299 1.5 0.0 0
M  V30 22 C 0.0 -0.75 0.0 0
M  V30 23 C -1.299 0.0 0.0 0
M  V30 24 C 0.0 -2.2499 0.0 0
M  V30 25 N -1.299 1.5 0.0 0
M  V30 26 C -2.598 -0.7499 0.0 0
M  V30 27 C -1.299 -2.9999 0.0 0
M  V30 28 C -2.598 2.25 0.0 0
M  V30 29 C -2.598 -2.2499 0.0 0
M  V30 30 C -2.598 3.75 0.0 0
M  V30 31 C -3.8971 1.5 0.0 0
M  V30 32 N -3.8971 -2.9999 0.0 0
M  V30 33 C -3.8971 4.5 0.0 0
M  V30 34 C -5.1961 2.25 0.0 0
M  V30 35 C -5.1961 -2.2499 0.0 0
M  V30 36 C -3.8971 -4.4999 0.0 0
M  V30 37 O -5.1961 3.75 0.0 0
M  V30 38 C -6.4951 -2.9999 0.0 0
M  V30 39 C -5.1961 -5.2499 0.0 0
M  V30 40 N -6.4951 -4.4999 0.0 0
M  V30 END ATOM
M  V30 BEGIN BOND
M  V30 1 1 1 2
M  V30 2 2 2 3
M  V30 3 1 2 4
M  V30 4 1 3 5
M  V30 5 2 4 6
M  V30 6 1 5 7
M  V30 7 2 5 8
M  V30 8 1 6 9
M  V30 9 1 9 10
M  V30 10 2 10 11
M  V30 11 1 10 12
M  V30 12 1 11 13
M  V30 13 2 12 14
M  V30 14 1 13 15
M  V30 15 2 13 16
M  V30 16 2 15 17
M  V30 17 1 15 18
M  V30 18 1 16 19
M  V30 19 1 18 20
M  V30 20 2 20 21
M  V30 21 1 20 22
M  V30 22 2 22 23
M  V30 23 1 22 24
M  V30 24 1 23 25
M  V30 25 1 23 26
M  V30 26 2 24 27
M  V30 27 1 25 28
M  V30 28 2 26 29
M  V30 29 1 28 30
M  V30 30 1 28 31
M  V30 31 1 29 32
M  V30 32 1 30 33
M  V30 33 1 31 34
M  V30 34 1 32 35
M  V30 35 1 32 36
M  V30 36 1 33 37
M  V30 37 1 35 38
M  V30 38 1 36 39
M  V30 39 1 38 40
M  V30 40 1 6 8
M  V30 41 1 14 16
M  V30 42 1 17 19
M  V30 43 1 27 29
M  V30 44 1 34 37
M  V30 45 1 39 40
M  V30 END BOND
M  V30 END CTAB
M  END
>  <Molecule Name>


>  <status>
-

>  <cas>
1108743-80-1

>  <name>
M ENTRECTINIB

>  <ID>
1970

>  <Smiles>
O=C(c(ccc(N1CCNCC1)c1)c1NC1CCOCC1)Nc1n[nH]c2c1cc(Cc1cc(F)cc(F)c1)cc2

$$$$

Actelion Java MolfileCreator 2.0

  0  0  0  0  0  0              0 V3000
M  V30 BEGIN CTAB
M  V30 COUNTS 39 44 0 0 0
M  V30 BEGIN ATOM
M  V30 1 F 6.2396 1.3788 0.0 0
M  V30 2 C 5.8057 2.2798 0.0 0
M  V30 3 C 6.369 3.106 0.0 0
M  V30 4 C 4.8085 2.3545 0.0 0
M  V30 5 F 7.3662 3.0313 0.0 0
M  V30 6 C 5.9351 4.007 0.0 0
M  V30 7 C 4.3746 3.2555 0.0 0
M  V30 8 C 4.2452 1.5283 0.0 0 CFG=1
M  V30 9 C 4.9379 4.0817 0.0 0
M  V30 10 C 4.7452 0.6623 0.0 0 CFG=2
M  V30 11 C 3.2563 1.6773 0.0 0
M  V30 12 N 5.7424 0.737 0.0 0
M  V30 13 C 4.3798 -0.2685 0.0 0
M  V30 14 C 2.5233 0.9972 0.0 0
M  V30 15 C 3.4243 -0.5633 0.0 0
M  V30 16 C 5.1129 -0.9487 0.0 0
M  V30 17 C 2.598 0.0 0.0 0 CFG=2
M  V30 18 N 3.2017 -1.5382 0.0 0
M  V30 19 C 4.8904 -1.9236 0.0 0
M  V30 20 O 1.732 -0.5 0.0 0
M  V30 21 C 3.9348 -2.2184 0.0 0
M  V30 22 C 0.866 0.0 0.0 0
M  V30 23 O 0.866 1.0 0.0 0
M  V30 24 N 0.0 -0.5 0.0 0
M  V30 25 C -0.866 0.0 0.0 0
M  V30 26 C 0.0 -1.4999 0.0 0
M  V30 27 C -1.732 -0.4999 0.0 0
M  V30 28 C -0.866 -1.9999 0.0 0
M  V30 29 C -1.732 -1.4999 0.0 0
M  V30 30 N -2.598 -1.9999 0.0 0
M  V30 31 C -3.5116 -1.5932 0.0 0
M  V30 32 C -2.7026 -2.9945 0.0 0
M  V30 33 O -3.7195 -0.6151 0.0 0
M  V30 34 N -4.1807 -2.3364 0.0 0
M  V30 35 C -3.6807 -3.2024 0.0 0
M  V30 36 C -2.0334 -3.7376 0.0 0
M  V30 37 N -3.9897 -4.1534 0.0 0
M  V30 38 C -2.3424 -4.6887 0.0 0
M  V30 39 C -3.3206 -4.8966 0.0 0
M  V30 END ATOM
M  V30 BEGIN BOND
M  V30 1 1 1 2
M  V30 2 2 2 3
M  V30 3 1 2 4
M  V30 4 1 3 5
M  V30 5 1 3 6
M  V30 6 2 4 7
M  V30 7 1 8 4 CFG=1
M  V30 8 2 6 9
M  V30 9 1 10 8
M  V30 10 1 8 11
M  V30 11 1 10 12 CFG=3
M  V30 12 1 10 13
M  V30 13 1 11 14
M  V30 14 2 13 15
M  V30 15 1 13 16
M  V30 16 1 17 14
M  V30 17 1 15 18
M  V30 18 2 16 19
M  V30 19 1 17 20 CFG=3
M  V30 20 2 18 21
M  V30 21 1 20 22
M  V30 22 2 22 23
M  V30 23 1 22 24
M  V30 24 1 24 25
M  V30 25 1 24 26
M  V30 26 1 25 27
M  V30 27 1 26 28
M  V30 28 1 27 29
M  V30 29 1 29 30
M  V30 30 1 30 31
M  V30 31 1 30 32
M  V30 32 2 31 33
M  V30 33 1 31 34
M  V30 34 2 32 35
M  V30 35 1 32 36
M  V30 36 1 35 37
M  V30 37 2 36 38
M  V30 38 2 37 39
M  V30 39 1 7 9
M  V30 40 1 15 17
M  V30 41 1 19 21
M  V30 42 1 28 29
M  V30 43 1 34 35
M  V30 44 1 38 39
M  V30 END BOND
M  V30 BEGIN COLLECTION
M  V30 MDLV30/STERAC1 ATOMS=(3 8 10 17)
M  V30 END COLLECTION
M  V30 END CTAB
M  END
>  <Molecule Name>


>  <status>
-

>  <cas>
1289023-67-1

>  <name>
RIMEGEPANT

>  <ID>
1971

>  <Smiles>
N[C@@H]([C@@H](CC[C@H]1OC(N(CC2)CCC2N(c2c(N3)nccc2)C3=O)=O)c2cccc(F)c2F)c2c1nccc2

$$$$

Actelion Java MolfileCreator 2.0

  0  0  0  0  0  0              0 V3000
M  V30 BEGIN CTAB
M  V30 COUNTS 17 19 0 0 0
M  V30 BEGIN ATOM
M  V30 1 F 0.0 1.5 0.0 0
M  V30 2 C 0.866 1.0 0.0 0
M  V30 3 C 0.866 0.0 0.0 0
M  V30 4 C 1.732 1.4999 0.0 0
M  V30 5 C 1.732 -0.5 0.0 0
M  V30 6 C 0.0 -0.5 0.0 0 CFG=1
M  V30 7 C 2.598 0.9999 0.0 0
M  V30 8 C 2.598 0.0 0.0 0
M  V30 9 N -0.9135 -0.0932 0.0 0
M  V30 10 C -0.1045 -1.4945 0.0 0
M  V30 11 C 3.4641 1.4999 0.0 0
M  V30 12 C -1.5826 -0.8364 0.0 0
M  V30 13 C -1.4135 0.7727 0.0 0
M  V30 14 C -1.0826 -1.7024 0.0 0
M  V30 15 N 4.3301 1.9999 0.0 0
M  V30 16 C -2.4962 -0.4296 0.0 0
M  V30 17 N -2.3916 0.5648 0.0 0
M  V30 END ATOM
M  V30 BEGIN BOND
M  V30 1 1 1 2
M  V30 2 2 2 3
M  V30 3 1 2 4
M  V30 4 1 3 5
M  V30 5 1 6 3 CFG=3
M  V30 6 2 4 7
M  V30 7 2 5 8
M  V30 8 1 6 9
M  V30 9 1 6 10
M  V30 10 1 7 11
M  V30 11 1 9 12
M  V30 12 1 9 13
M  V30 13 1 10 14
M  V30 14 3 11 15
M  V30 15 2 12 16
M  V30 16 2 13 17
M  V30 17 1 7 8
M  V30 18 1 12 14
M  V30 19 1 16 17
M  V30 END BOND
M  V30 BEGIN COLLECTION
M  V30 MDLV30/STERAC1 ATOMS=(1 6)
M  V30 END COLLECTION
M  V30 END CTAB
M  END
>  <Molecule Name>


>  <status>
-

>  <cas>
928134-65-0

>  <name>
OSILODROSTAT

>  <ID>
1972

>  <Smiles>
N#Cc1cc(F)c(C(CC2)n3c2cnc3)cc1

$$$$

Actelion Java MolfileCreator 2.0

  0  0  0  0  0  0              0 V3000
M  V30 BEGIN CTAB
M  V30 COUNTS 23 25 0 0 0
M  V30 BEGIN ATOM
M  V30 1 S 5.4826 3.0791 0.0 0
M  V30 2 O 5.3989 2.0826 0.0 0
M  V30 3 O 5.5663 4.0756 0.0 0
M  V30 4 O 4.4861 3.1628 0.0 0
M  V30 5 O 6.4791 2.9954 0.0 0
M  V30 6 N 3.9154 2.3417 0.0 0
M  V30 7 C 2.9156 2.3207 0.0 0
M  V30 8 C 4.2442 1.3973 0.0 0 CFG=2
M  V30 9 O 2.311 3.1173 0.0 0
M  V30 10 N 2.6265 1.3634 0.0 0
M  V30 11 C 4.3297 0.0362 0.0 0
M  V30 12 C 3.4477 0.7927 0.0 0
M  V30 13 C 2.598 0.0 0.0 0 CFG=1
M  V30 14 C 3.4743 -0.4817 0.0 0
M  V30 15 C 1.732 -0.5 0.0 0
M  V30 16 O 1.732 -1.5 0.0 0
M  V30 17 N 0.866 0.0 0.0 0
M  V30 18 C 0.0 -0.5 0.0 0
M  V30 19 C -0.866 0.0 0.0 0
M  V30 20 C 0.0 -1.4999 0.0 0
M  V30 21 C -1.732 -0.4999 0.0 0
M  V30 22 C -0.866 -1.9999 0.0 0
M  V30 23 N -1.732 -1.4999 0.0 0
M  V30 END ATOM
M  V30 BEGIN BOND
M  V30 1 2 1 2
M  V30 2 2 1 3
M  V30 3 1 1 4
M  V30 4 1 1 5
M  V30 5 1 4 6
M  V30 6 1 6 7
M  V30 7 1 8 6 CFG=3
M  V30 8 2 7 9
M  V30 9 1 7 10
M  V30 10 1 8 11
M  V30 11 1 8 12
M  V30 12 1 13 10
M  V30 13 1 11 14
M  V30 14 1 13 15 CFG=1
M  V30 15 2 15 16
M  V30 16 1 15 17
M  V30 17 1 17 18
M  V30 18 1 18 19
M  V30 19 1 18 20
M  V30 20 1 19 21
M  V30 21 1 20 22
M  V30 22 1 21 23
M  V30 23 1 10 12
M  V30 24 1 13 14
M  V30 25 1 22 23
M  V30 END BOND
M  V30 BEGIN COLLECTION
M  V30 MDLV30/STERAC1 ATOMS=(2 8 13)
M  V30 END COLLECTION
M  V30 END CTAB
M  END
>  <Molecule Name>


>  <status>
-

>  <cas>
1174018-99-5

>  <name>
RELEBACTAM

>  <ID>
1973

>  <Smiles>
OS(ON([C@@H]1CC[C@@H](C(NC2CCNCC2)=O)N2C1)C2=O)(=O)=O

$$$$

Actelion Java MolfileCreator 2.0

  0  0  0  0  0  0              0 V3000
M  V30 BEGIN CTAB
M  V30 COUNTS 18 19 0 0 0
M  V30 BEGIN ATOM
M  V30 1 Cl 4.3301 1.0 0.0 0
M  V30 2 C 3.4641 1.5 0.0 0
M  V30 3 C 2.598 1.0 0.0 0
M  V30 4 C 3.4641 2.5 0.0 0
M  V30 5 C 1.732 1.4999 0.0 0
M  V30 6 C 2.598 0.0 0.0 0 CFG=1
M  V30 7 C 2.598 3.0 0.0 0
M  V30 8 C 1.732 2.4999 0.0 0
M  V30 9 O 1.732 -0.5 0.0 0
M  V30 10 C 3.4641 -0.5 0.0 0
M  V30 11 C 0.866 0.0 0.0 0
M  V30 12 N 3.4641 -1.5 0.0 0
M  V30 13 O 0.866 1.0 0.0 0
M  V30 14 N 0.0 -0.5 0.0 0
M  V30 15 N 4.2731 -2.0877 0.0 0
M  V30 16 N 2.655 -2.0877 0.0 0
M  V30 17 N 3.9641 -3.0388 0.0 0
M  V30 18 C 2.9641 -3.0388 0.0 0
M  V30 END ATOM
M  V30 BEGIN BOND
M  V30 1 1 1 2
M  V30 2 2 2 3
M  V30 3 1 2 4
M  V30 4 1 3 5
M  V30 5 1 6 3
M  V30 6 2 4 7
M  V30 7 2 5 8
M  V30 8 1 6 9 CFG=3
M  V30 9 1 6 10
M  V30 10 1 9 11
M  V30 11 1 10 12
M  V30 12 2 11 13
M  V30 13 1 11 14
M  V30 14 1 12 15
M  V30 15 1 12 16
M  V30 16 2 15 17
M  V30 17 2 16 18
M  V30 18 1 7 8
M  V30 19 1 17 18
M  V30 END BOND
M  V30 BEGIN COLLECTION
M  V30 MDLV30/STERAC1 ATOMS=(1 6)
M  V30 END COLLECTION
M  V30 END CTAB
M  END
>  <Molecule Name>


>  <status>
-

>  <cas>
913088-80-9

>  <name>
CENOBAMATE

>  <ID>
1974

>  <Smiles>
NC(OC(Cn1nncn1)c(cccc1)c1Cl)=O

$$$$

Actelion Java MolfileCreator 2.0

  0  0  0  0  0  0              0 V3000
M  V30 BEGIN CTAB
M  V30 COUNTS 25 27 0 0 0
M  V30 BEGIN ATOM
M  V30 1 F 6.5621 1.866 0.0 0
M  V30 2 C 6.0621 1.0 0.0 0
M  V30 3 F 6.9282 0.5 0.0 0
M  V30 4 F 5.5621 0.1339 0.0 0
M  V30 5 O 5.1961 1.5 0.0 0
M  V30 6 C 4.3301 1.0 0.0 0
M  V30 7 C 3.4641 1.5 0.0 0
M  V30 8 C 4.3301 0.0 0.0 0
M  V30 9 C 2.598 0.9999 0.0 0
M  V30 10 C 3.4641 -0.4999 0.0 0
M  V30 11 C 2.598 0.0 0.0 0
M  V30 12 C 1.732 -0.5 0.0 0
M  V30 13 O 0.866 0.0 0.0 0
M  V30 14 C 0.0 -0.5 0.0 0 CFG=2
M  V30 15 C -0.866 0.0 0.0 0
M  V30 16 C 0.0 -1.4999 0.0 0
M  V30 17 O -1.732 -0.4999 0.0 0
M  V30 18 N -0.866 -1.9999 0.0 0
M  V30 19 C -1.732 -1.4999 0.0 0
M  V30 20 C -1.0739 -2.9781 0.0 0
M  V30 21 N -2.4751 -2.1691 0.0 0
M  V30 22 C -2.0684 -3.0826 0.0 0
M  V30 23 N -2.5684 -3.9487 0.0 0 CHG=1
M  V30 24 O -3.5684 -3.9487 0.0 0
M  V30 25 O -2.0684 -4.8147 0.0 0 CHG=-1
M  V30 END ATOM
M  V30 BEGIN BOND
M  V30 1 1 1 2
M  V30 2 1 2 3
M  V30 3 1 2 4
M  V30 4 1 2 5
M  V30 5 1 5 6
M  V30 6 2 6 7
M  V30 7 1 6 8
M  V30 8 1 7 9
M  V30 9 2 8 10
M  V30 10 2 9 11
M  V30 11 1 11 12
M  V30 12 1 12 13
M  V30 13 1 14 13 CFG=1
M  V30 14 1 14 15
M  V30 15 1 14 16
M  V30 16 1 15 17
M  V30 17 1 16 18
M  V30 18 1 17 19
M  V30 19 1 18 20
M  V30 20 2 19 21
M  V30 21 2 20 22
M  V30 22 1 22 23
M  V30 23 2 23 24
M  V30 24 1 23 25
M  V30 25 1 10 11
M  V30 26 1 18 19
M  V30 27 1 21 22
M  V30 END BOND
M  V30 BEGIN COLLECTION
M  V30 MDLV30/STERAC1 ATOMS=(1 14)
M  V30 END COLLECTION
M  V30 END CTAB
M  END
>  <Molecule Name>


>  <status>
-

>  <cas>
187235-37-6

>  <name>
PRETOMANID

>  <ID>
1975

>  <Smiles>
[O-][N+](c1cn(CC(CO2)OCc(cc3)ccc3OC(F)(F)F)c2n1)=O

$$$$

Actelion Java MolfileCreator 2.0

  0  0  0  0  0  0              0 V3000
M  V30 BEGIN CTAB
M  V30 COUNTS 41 45 0 0 0
M  V30 BEGIN ATOM
M  V30 1 P 2.598 0.0 0.0 0
M  V30 2 O 3.098 -0.866 0.0 0
M  V30 3 O 1.732 -0.5 0.0 0
M  V30 4 O 3.4641 0.5 0.0 0 CHG=-1
M  V30 5 O 2.098 0.866 0.0 0 CHG=-1
M  V30 6 C 0.866 0.0 0.0 0
M  V30 7 N 0.0 -0.5 0.0 0
M  V30 8 C -0.9135 -0.0932 0.0 0
M  V30 9 C -0.1045 -1.4945 0.0 0
M  V30 10 C -1.2225 0.8577 0.0 0
M  V30 11 C -1.5826 -0.8364 0.0 0
M  V30 12 C -1.0826 -1.7024 0.0 0
M  V30 13 N -2.2007 1.0657 0.0 0
M  V30 14 N -0.5534 1.6009 0.0 0
M  V30 15 C -2.5608 -0.6284 0.0 0
M  V30 16 C -1.4894 -2.6159 0.0 0
M  V30 17 C -2.8698 0.3225 0.0 0
M  V30 18 N 0.441 1.4964 0.0 0
M  V30 19 C -0.7613 2.579 0.0 0
M  V30 20 O -3.2299 -1.3716 0.0 0
M  V30 21 O -2.4839 -2.7205 0.0 0
M  V30 22 C -0.9016 -3.4249 0.0 0
M  V30 23 C 0.8478 2.4099 0.0 0
M  V30 24 N 0.1046 3.079 0.0 0
M  V30 25 C -4.2081 -1.1637 0.0 0
M  V30 26 O 0.0928 -3.3204 0.0 0
M  V30 27 N -1.3083 -4.3385 0.0 0
M  V30 28 C 1.8259 2.6178 0.0 0
M  V30 29 C -0.7205 -5.1475 0.0 0
M  V30 30 C -2.3028 -4.443 0.0 0
M  V30 31 C -1.1273 -6.0611 0.0 0
M  V30 32 C -2.7096 -5.3566 0.0 0
M  V30 33 N -2.1218 -6.1656 0.0 0
M  V30 34 C -2.5285 -7.0791 0.0 0
M  V30 35 O -1.9407 -7.8881 0.0 0
M  V30 36 C -3.523 -7.1837 0.0 0
M  V30 37 C -3.9298 -8.0972 0.0 0
M  V30 38 C -4.1108 -6.3746 0.0 0
M  V30 39 C -4.9243 -8.2017 0.0 0
M  V30 40 C -5.1054 -6.4792 0.0 0
M  V30 41 C -5.5121 -7.3927 0.0 0
M  V30 END ATOM
M  V30 BEGIN BOND
M  V30 1 2 1 2
M  V30 2 1 1 3
M  V30 3 1 1 4
M  V30 4 1 1 5
M  V30 5 1 3 6
M  V30 6 1 6 7
M  V30 7 1 7 8
M  V30 8 1 7 9
M  V30 9 2 8 10
M  V30 10 1 8 11
M  V30 11 2 9 12
M  V30 12 1 10 13
M  V30 13 1 10 14
M  V30 14 2 11 15
M  V30 15 1 12 16
M  V30 16 2 13 17
M  V30 17 1 14 18
M  V30 18 1 14 19
M  V30 19 1 15 20
M  V30 20 2 16 21
M  V30 21 1 16 22
M  V30 22 2 18 23
M  V30 23 2 19 24
M  V30 24 1 20 25
M  V30 25 2 22 26
M  V30 26 1 22 27
M  V30 27 1 23 28
M  V30 28 1 27 29
M  V30 29 1 27 30
M  V30 30 1 29 31
M  V30 31 1 30 32
M  V30 32 1 31 33
M  V30 33 1 33 34
M  V30 34 2 34 35
M  V30 35 1 34 36
M  V30 36 2 36 37
M  V30 37 1 36 38
M  V30 38 1 37 39
M  V30 39 2 38 40
M  V30 40 2 39 41
M  V30 41 1 11 12
M  V30 42 1 15 17
M  V30 43 1 23 24
M  V30 44 1 32 33
M  V30 45 1 40 41
M  V30 END BOND
M  V30 END CTAB
M  END
>  <Molecule Name>


>  <status>
-

>  <cas>
864953-29-7

>  <name>
FOSTEMSAVIR

>  <ID>
1976

>  <Smiles>
Cc(nc1)nn1-c(nc1)c2n(COP([O-])([O-])=O)cc(C(C(N(CC3)CCN3C(c3ccccc3)=O)=O)=O)c2c1OC

$$$$

Actelion Java MolfileCreator 2.0

  0  0  0  0  0  0              0 V3000
M  V30 BEGIN CTAB
M  V30 COUNTS 35 39 0 0 0
M  V30 BEGIN ATOM
M  V30 1 O 5.1961 2.5 0.0 0
M  V30 2 C 5.1961 1.5 0.0 0
M  V30 3 N 4.3301 1.0 0.0 0
M  V30 4 C 6.0621 1.0 0.0 0
M  V30 5 C 3.4641 1.5 0.0 0
M  V30 6 C 4.3301 0.0 0.0 0
M  V30 7 C 6.0621 0.0 0.0 0
M  V30 8 C 6.9282 1.5 0.0 0
M  V30 9 C 2.598 0.9999 0.0 0
M  V30 10 C 3.4641 -0.4999 0.0 0
M  V30 11 C 6.9282 -0.4999 0.0 0
M  V30 12 C 7.7942 0.9999 0.0 0
M  V30 13 N 2.598 0.0 0.0 0
M  V30 14 C 7.7942 0.0 0.0 0
M  V30 15 C 1.732 -0.5 0.0 0
M  V30 16 O 1.732 -1.5 0.0 0
M  V30 17 C 0.866 0.0 0.0 0
M  V30 18 O 0.866 1.0 0.0 0
M  V30 19 C 0.0 -0.5 0.0 0
M  V30 20 C -0.9135 -0.0932 0.0 0
M  V30 21 C -0.1045 -1.4945 0.0 0
M  V30 22 C -1.2225 0.8577 0.0 0
M  V30 23 C -1.5826 -0.8364 0.0 0
M  V30 24 N -1.0826 -1.7024 0.0 0
M  V30 25 O -0.5534 1.6009 0.0 0
M  V30 26 C -2.2007 1.0657 0.0 0
M  V30 27 C -2.5608 -0.6284 0.0 0
M  V30 28 C -0.8624 2.5519 0.0 0
M  V30 29 N -2.8698 0.3225 0.0 0
M  V30 30 N -3.2299 -1.3716 0.0 0
M  V30 31 N -4.2244 -1.2671 0.0 0
M  V30 32 C -3.022 -2.3497 0.0 0
M  V30 33 C -4.6312 -2.1806 0.0 0
M  V30 34 N -3.888 -2.8497 0.0 0
M  V30 35 C -5.6093 -2.3885 0.0 0
M  V30 END ATOM
M  V30 BEGIN BOND
M  V30 1 2 1 2
M  V30 2 1 2 3
M  V30 3 1 2 4
M  V30 4 1 3 5
M  V30 5 1 3 6
M  V30 6 2 4 7
M  V30 7 1 4 8
M  V30 8 1 5 9
M  V30 9 1 6 10
M  V30 10 1 7 11
M  V30 11 2 8 12
M  V30 12 1 9 13
M  V30 13 2 11 14
M  V30 14 1 13 15
M  V30 15 2 15 16
M  V30 16 1 15 17
M  V30 17 2 17 18
M  V30 18 1 17 19
M  V30 19 1 19 20
M  V30 20 2 19 21
M  V30 21 2 20 22
M  V30 22 1 20 23
M  V30 23 1 21 24
M  V30 24 1 22 25
M  V30 25 1 22 26
M  V30 26 2 23 27
M  V30 27 1 25 28
M  V30 28 2 26 29
M  V30 29 1 27 30
M  V30 30 1 30 31
M  V30 31 1 30 32
M  V30 32 2 31 33
M  V30 33 2 32 34
M  V30 34 1 33 35
M  V30 35 1 10 13
M  V30 36 1 12 14
M  V30 37 1 23 24
M  V30 38 1 27 29
M  V30 39 1 33 34
M  V30 END BOND
M  V30 END CTAB
M  END
>  <Molecule Name>


>  <status>
-

>  <cas>
701213-36-7

>  <name>
TEMSAVIR

>  <ID>
1977

>  <Smiles>
Cc(nc1)nn1-c(nc1)c2[nH]cc(C(C(N(CC3)CCN3C(c3ccccc3)=O)=O)=O)c2c1OC

$$$$

Actelion Java MolfileCreator 2.0

  0  0  0  0  0  0              0 V3000
M  V30 BEGIN CTAB
M  V30 COUNTS 27 30 0 0 0
M  V30 BEGIN ATOM
M  V30 1 O 3.4641 -1.5 0.0 0
M  V30 2 C 3.4641 -0.5 0.0 0
M  V30 3 O 4.3301 0.0 0.0 0
M  V30 4 C 2.598 0.0 0.0 0
M  V30 5 C 5.1961 -0.5 0.0 0 CFG=2
M  V30 6 C 1.732 -0.5 0.0 0
M  V30 7 O 5.1961 -1.5 0.0 0
M  V30 8 C 6.0621 0.0 0.0 0 CFG=1
M  V30 9 C 0.866 0.0 0.0 0
M  V30 10 C 6.0621 -2.0 0.0 0 CFG=2
M  V30 11 C 6.9282 -0.5 0.0 0 CFG=1
M  V30 12 C 6.0621 0.9999 0.0 0
M  V30 13 O 0.866 1.0 0.0 0
M  V30 14 O 0.0 -0.5 0.0 0 CHG=-1
M  V30 15 O 6.0621 -3.0 0.0 0
M  V30 16 C 6.9282 -1.5 0.0 0 CFG=1
M  V30 17 C 7.7942 0.0 0.0 0
M  V30 18 C 6.9282 -3.5 0.0 0 CFG=2
M  V30 19 O 7.5442 -1.9999 0.0 0
M  V30 20 C 7.9191 -1.984 0.0 0 CFG=2
M  V30 21 C 8.6602 -0.4999 0.0 0
M  V30 22 O 7.7923 -2.9714 0.0 0
M  V30 23 C 8.6238 -3.3897 0.0 0
M  V30 24 C 6.7008 -4.4738 0.0 0
M  V30 25 C 8.6602 -1.4999 0.0 0 CFG=1
M  V30 26 C 8.9839 -2.4568 0.0 0
M  V30 27 C 9.5262 -1.9999 0.0 0
M  V30 END ATOM
M  V30 BEGIN BOND
M  V30 1 2 1 2
M  V30 2 1 2 3
M  V30 3 1 2 4
M  V30 4 1 5 3 CFG=1
M  V30 5 1 4 6
M  V30 6 1 5 7
M  V30 7 1 8 5
M  V30 8 1 6 9
M  V30 9 1 10 7 CFG=1
M  V30 10 1 11 8
M  V30 11 1 8 12 CFG=3
M  V30 12 2 9 13
M  V30 13 1 9 14
M  V30 14 1 10 15
M  V30 15 1 16 10
M  V30 16 1 11 17 CFG=3
M  V30 17 1 18 15
M  V30 18 1 16 19 CFG=1
M  V30 19 1 20 16
M  V30 20 1 17 21
M  V30 21 1 18 22
M  V30 22 1 18 23
M  V30 23 1 18 24 CFG=1
M  V30 24 1 25 20
M  V30 25 1 20 26 CFG=3
M  V30 26 1 25 27 CFG=1
M  V30 27 1 11 16
M  V30 28 1 19 22
M  V30 29 1 21 25
M  V30 30 1 23 26
M  V30 END BOND
M  V30 BEGIN COLLECTION
M  V30 MDLV30/STERAC1 ATOMS=(8 5 8 10 11 16 18 20 25)
M  V30 END COLLECTION
M  V30 END CTAB
M  END
>  <Molecule Name>


>  <status>
-

>  <cas>
88495-63-0

>  <name>
ARTESUNATE

>  <ID>
1978

>  <Smiles>
C[C@H](CC[C@H]1[C@H]2C)[C@H](CC3)[C@]11OO[C@@]3(C)O[C@H]1O[C@H]2OC(CCC([O-])=O)=O

$$$$

Actelion Java MolfileCreator 2.0

  0  0  0  0  0  0              0 V3000
M  V30 BEGIN CTAB
M  V30 COUNTS 25 27 0 0 0
M  V30 BEGIN ATOM
M  V30 1 O 1.732 2.5 0.0 0
M  V30 2 C 1.732 1.4999 0.0 0
M  V30 3 C 2.598 1.0 0.0 0
M  V30 4 C 2.598 0.0 0.0 0
M  V30 5 C 3.4641 1.4999 0.0 0
M  V30 6 O 1.732 -0.5 0.0 0
M  V30 7 C 3.4641 -0.5 0.0 0
M  V30 8 O 3.4641 2.5 0.0 0
M  V30 9 C 4.3301 1.0 0.0 0
M  V30 10 C 0.866 0.0 0.0 0
M  V30 11 C 4.3301 0.0 0.0 0
M  V30 12 C 0.0 -0.5 0.0 0
M  V30 13 C -0.866 0.0 0.0 0
M  V30 14 C 0.0 -1.4999 0.0 0
M  V30 15 N -1.732 -0.4999 0.0 0
M  V30 16 C -0.866 1.0 0.0 0
M  V30 17 C -0.866 -1.9999 0.0 0
M  V30 18 C -1.732 -1.4999 0.0 0
M  V30 19 N -1.675 1.5877 0.0 0
M  V30 20 C -0.057 1.5877 0.0 0
M  V30 21 N -1.366 2.5388 0.0 0
M  V30 22 C -2.626 1.2787 0.0 0
M  V30 23 C -0.366 2.5388 0.0 0
M  V30 24 C -2.834 0.3006 0.0 0
M  V30 25 C -3.3692 1.9478 0.0 0
M  V30 END ATOM
M  V30 BEGIN BOND
M  V30 1 2 1 2
M  V30 2 1 2 3
M  V30 3 2 3 4
M  V30 4 1 3 5
M  V30 5 1 4 6
M  V30 6 1 4 7
M  V30 7 1 5 8
M  V30 8 2 5 9
M  V30 9 1 6 10
M  V30 10 2 7 11
M  V30 11 1 10 12
M  V30 12 2 12 13
M  V30 13 1 12 14
M  V30 14 1 13 15
M  V30 15 1 13 16
M  V30 16 2 14 17
M  V30 17 2 15 18
M  V30 18 1 16 19
M  V30 19 2 16 20
M  V30 20 1 19 21
M  V30 21 1 19 22
M  V30 22 1 20 23
M  V30 23 1 22 24
M  V30 24 1 22 25
M  V30 25 1 9 11
M  V30 26 1 17 18
M  V30 27 2 21 23
M  V30 END BOND
M  V30 END CTAB
M  END
>  <Molecule Name>


>  <status>
-

>  <cas>
1446321-46-5

>  <name>
VOXELOTOR

>  <ID>
1979

>  <Smiles>
CC(C)n1nccc1-c1c(COc2c(C=O)c(O)ccc2)cccn1

$$$$

Actelion Java MolfileCreator 2.0

  0  0  0  0  0  0              0 V3000
M  V30 BEGIN CTAB
M  V30 COUNTS 35 39 0 0 0
M  V30 BEGIN ATOM
M  V30 1 O 13.9779 0.4434 0.0 0
M  V30 2 C 12.9742 1.5581 0.0 0
M  V30 3 N 13.4377 2.9847 0.0 0
M  V30 4 C 11.507 1.2463 0.0 0
M  V30 5 C 10.3923 2.25 0.0 0
M  V30 6 C 10.8969 -0.124 0.0 0
M  V30 7 N 9.0932 1.5 0.0 0
M  V30 8 N 10.3923 3.7499 0.0 0
M  V30 9 N 9.4051 0.0327 0.0 0
M  V30 10 C 11.6469 -1.423 0.0 0
M  V30 11 C 7.7942 2.25 0.0 0 CFG=2
M  V30 12 C 9.0932 4.5 0.0 0
M  V30 13 C 10.8969 -2.722 0.0 0
M  V30 14 C 13.1469 -1.423 0.0 0
M  V30 15 C 6.4951 1.5 0.0 0
M  V30 16 C 7.7942 3.75 0.0 0
M  V30 17 C 11.6469 -4.0211 0.0 0
M  V30 18 C 13.8969 -2.722 0.0 0
M  V30 19 C 5.1961 2.25 0.0 0
M  V30 20 C 6.4951 0.0 0.0 0
M  V30 21 C 13.1469 -4.0211 0.0 0
M  V30 22 C 3.8971 1.5 0.0 0
M  V30 23 C 5.1961 -0.7499 0.0 0
M  V30 24 O 13.8969 -5.3201 0.0 0
M  V30 25 N 3.8971 0.0 0.0 0
M  V30 26 C 15.3969 -5.3201 0.0 0
M  V30 27 C 2.598 -0.75 0.0 0
M  V30 28 C 16.1469 -6.6192 0.0 0
M  V30 29 C 16.1469 -4.0211 0.0 0
M  V30 30 O 2.598 -2.25 0.0 0
M  V30 31 C 1.299 0.0 0.0 0
M  V30 32 C 17.6469 -6.6192 0.0 0
M  V30 33 C 17.6469 -4.0211 0.0 0
M  V30 34 C 0.0 -0.75 0.0 0
M  V30 35 C 18.3969 -5.3201 0.0 0
M  V30 END ATOM
M  V30 BEGIN BOND
M  V30 1 2 1 2
M  V30 2 1 2 3
M  V30 3 1 2 4
M  V30 4 2 4 5
M  V30 5 1 4 6
M  V30 6 1 5 7
M  V30 7 1 5 8
M  V30 8 2 6 9
M  V30 9 1 6 10
M  V30 10 1 11 7
M  V30 11 1 8 12
M  V30 12 2 10 13
M  V30 13 1 10 14
M  V30 14 1 11 15 CFG=3
M  V30 15 1 11 16
M  V30 16 1 13 17
M  V30 17 2 14 18
M  V30 18 1 15 19
M  V30 19 1 15 20
M  V30 20 2 17 21
M  V30 21 1 19 22
M  V30 22 1 20 23
M  V30 23 1 21 24
M  V30 24 1 22 25
M  V30 25 1 24 26
M  V30 26 1 25 27
M  V30 27 2 26 28
M  V30 28 1 26 29
M  V30 29 2 27 30
M  V30 30 1 27 31
M  V30 31 1 28 32
M  V30 32 2 29 33
M  V30 33 2 31 34
M  V30 34 2 32 35
M  V30 35 1 7 9
M  V30 36 1 12 16
M  V30 37 1 18 21
M  V30 38 1 23 25
M  V30 39 1 33 35
M  V30 END BOND
M  V30 BEGIN COLLECTION
M  V30 MDLV30/STERAC1 ATOMS=(1 11)
M  V30 END COLLECTION
M  V30 END CTAB
M  END
>  <Molecule Name>


>  <status>
-

>  <cas>
1691249-45-2

>  <name>
ZANUBRUTINIB

>  <ID>
1980

>  <Smiles>
C=CC(N(CC1)CCC1C(CCNc1c2C(N)=O)n1nc2-c(cc1)ccc1Oc1ccccc1)=O

$$$$

Actelion Java MolfileCreator 2.0

  0  0  0  0  0  0              0 V3000
M  V30 BEGIN CTAB
M  V30 COUNTS 39 44 0 0 0
M  V30 BEGIN ATOM
M  V30 1 O 1.732 -0.5 0.0 0
M  V30 2 C 2.598 0.0 0.0 0
M  V30 3 C 0.866 0.0 0.0 0
M  V30 4 C 3.4641 -0.5 0.0 0
M  V30 5 C 2.598 0.9999 0.0 0
M  V30 6 C 0.0 -0.5 0.0 0
M  V30 7 N 4.3301 0.0 0.0 0
M  V30 8 C 3.4641 1.5 0.0 0
M  V30 9 O 0.4999 -1.366 0.0 0
M  V30 10 C -0.866 -0.9999 0.0 0
M  V30 11 C -0.4999 0.366 0.0 0
M  V30 12 N 5.2811 -0.309 0.0 0
M  V30 13 C 4.3301 1.0 0.0 0
M  V30 14 C 3.4641 2.5 0.0 0
M  V30 15 C 5.8689 0.5 0.0 0
M  V30 16 C 5.2811 1.309 0.0 0
M  V30 17 C 4.3301 3.0 0.0 0
M  V30 18 C 2.598 3.0 0.0 0
M  V30 19 C 5.5902 2.26 0.0 0
M  V30 20 N 4.2939 3.9214 0.0 0
M  V30 21 C 2.598 4.0 0.0 0
M  V30 22 N 5.8992 3.2111 0.0 0
M  V30 23 C 3.4641 4.5 0.0 0
M  V30 24 N 3.4302 5.415 0.0 0
M  V30 25 C 2.598 5.9999 0.0 0
M  V30 26 C 4.3301 6.0 0.0 0
M  V30 27 C 2.7569 7.4023 0.0 0 CFG=1
M  V30 28 C 4.1712 7.4023 0.0 0 CFG=2
M  V30 29 N 3.4641 6.6952 0.0 0
M  V30 30 C 3.4641 8.1094 0.0 0
M  V30 31 C 3.4641 5.8415 0.0 0
M  V30 32 C 4.3301 5.1952 0.0 0
M  V30 33 C 4.3714 4.343 0.0 0
M  V30 34 C 5.1961 5.6952 0.0 0
M  V30 35 N 5.1961 3.6952 0.0 0
M  V30 36 C 6.0621 5.1952 0.0 0
M  V30 37 C 6.0621 4.1952 0.0 0
M  V30 38 O 6.9282 3.6952 0.0 0
M  V30 39 C 7.7942 4.1952 0.0 0
M  V30 END ATOM
M  V30 BEGIN BOND
M  V30 1 1 1 2
M  V30 2 1 1 3
M  V30 3 2 2 4
M  V30 4 1 2 5
M  V30 5 1 3 6
M  V30 6 1 4 7
M  V30 7 2 5 8
M  V30 8 1 6 9
M  V30 9 1 6 10
M  V30 10 1 6 11
M  V30 11 1 7 12
M  V30 12 1 7 13
M  V30 13 1 8 14
M  V30 14 2 12 15
M  V30 15 2 13 16
M  V30 16 2 14 17
M  V30 17 1 14 18
M  V30 18 1 16 19
M  V30 19 1 17 20
M  V30 20 2 18 21
M  V30 21 3 19 22
M  V30 22 2 20 23
M  V30 23 1 23 24
M  V30 24 1 24 25
M  V30 25 1 24 26
M  V30 26 1 27 25
M  V30 27 1 28 26
M  V30 28 1 27 29 CFG=1
M  V30 29 1 27 30
M  V30 30 1 29 31
M  V30 31 1 31 32
M  V30 32 2 32 33
M  V30 33 1 32 34
M  V30 34 1 33 35
M  V30 35 2 34 36
M  V30 36 2 35 37
M  V30 37 1 37 38
M  V30 38 1 38 39
M  V30 39 1 8 13
M  V30 40 1 15 16
M  V30 41 1 21 23
M  V30 42 1 28 29 CFG=1
M  V30 43 1 28 30
M  V30 44 1 36 37
M  V30 END BOND
M  V30 BEGIN COLLECTION
M  V30 MDLV30/STEABS ATOMS=(2 27 28)
M  V30 END COLLECTION
M  V30 END CTAB
M  END
>  <Molecule Name>


>  <status>
-

>  <cas>
2152628-33-4

>  <name>
SELPERCATINIB

>  <ID>
1981

>  <Smiles>
CC(C)(COc1cn2ncc(C#N)c2c(-c(cc2)cnc2N2C[C@H](C3)N(Cc(cc4)cnc4OC)[C@H]3C2)c1)O

$$$$

Actelion Java MolfileCreator 2.0

  0  0  0  0  0  0              0 V3000
M  V30 BEGIN CTAB
M  V30 COUNTS 36 41 0 0 0
M  V30 BEGIN ATOM
M  V30 1 O 3.9683 -0.1398 0.0 0
M  V30 2 C 2.598 -0.75 0.0 0
M  V30 3 C 4.972 -1.2546 0.0 0
M  V30 4 N 2.7548 -2.2417 0.0 0
M  V30 5 N 1.299 0.0 0.0 0
M  V30 6 C 4.222 -2.5536 0.0 0
M  V30 7 C 0.0 -0.75 0.0 0
M  V30 8 C 4.0652 -4.0454 0.0 0
M  V30 9 C 5.4356 -3.4352 0.0 0
M  V30 10 C -1.299 0.0 0.0 0
M  V30 11 C 0.0 -2.25 0.0 0
M  V30 12 C -2.598 -0.75 0.0 0
M  V30 13 C -1.299 -3.0 0.0 0
M  V30 14 C -3.8971 0.0 0.0 0
M  V30 15 C -2.598 -2.25 0.0 0
M  V30 16 N -5.1961 -0.75 0.0 0
M  V30 17 N -3.8971 1.5 0.0 0
M  V30 18 N -3.8971 -3.0 0.0 0
M  V30 19 C -5.1961 -2.25 0.0 0
M  V30 20 C -5.1961 2.25 0.0 0
M  V30 21 C -5.1961 3.75 0.0 0
M  V30 22 C -6.4951 1.5 0.0 0
M  V30 23 C -6.4951 4.5 0.0 0
M  V30 24 C -7.7942 2.25 0.0 0
M  V30 25 C -7.7942 3.75 0.0 0
M  V30 26 C -6.4951 6.0 0.0 0
M  V30 27 O -9.0932 4.5 0.0 0
M  V30 28 C -10.3923 3.75 0.0 0
M  V30 29 C -11.6913 4.5 0.0 0
M  V30 30 C -10.3923 2.25 0.0 0
M  V30 31 C -12.9903 3.75 0.0 0
M  V30 32 C -11.6913 1.5 0.0 0
M  V30 33 N -14.4169 4.2135 0.0 0
M  V30 34 N -12.9903 2.25 0.0 0
M  V30 35 C -15.2986 3.0 0.0 0
M  V30 36 N -14.4169 1.7864 0.0 0
M  V30 END ATOM
M  V30 BEGIN BOND
M  V30 1 1 1 2
M  V30 2 1 1 3
M  V30 3 2 2 4
M  V30 4 1 2 5
M  V30 5 1 3 6
M  V30 6 1 5 7
M  V30 7 1 6 8
M  V30 8 1 6 9
M  V30 9 2 7 10
M  V30 10 1 7 11
M  V30 11 1 10 12
M  V30 12 2 11 13
M  V30 13 2 12 14
M  V30 14 1 12 15
M  V30 15 1 14 16
M  V30 16 1 14 17
M  V30 17 2 15 18
M  V30 18 2 16 19
M  V30 19 1 17 20
M  V30 20 2 20 21
M  V30 21 1 20 22
M  V30 22 1 21 23
M  V30 23 2 22 24
M  V30 24 2 23 25
M  V30 25 1 23 26
M  V30 26 1 25 27
M  V30 27 1 27 28
M  V30 28 2 28 29
M  V30 29 1 28 30
M  V30 30 1 29 31
M  V30 31 2 30 32
M  V30 32 2 31 33
M  V30 33 1 31 34
M  V30 34 1 33 35
M  V30 35 1 34 36
M  V30 36 1 4 6
M  V30 37 1 13 15
M  V30 38 1 18 19
M  V30 39 1 24 25
M  V30 40 1 32 34
M  V30 41 2 35 36
M  V30 END BOND
M  V30 END CTAB
M  END
>  <Molecule Name>


>  <status>
-

>  <cas>
937263-43-9

>  <name>
TUCATINIB

>  <ID>
1982

>  <Smiles>
CC1(C)N=C(Nc2cc3c(Nc(cc4)cc(C)c4Oc4cc5ncnn5cc4)ncnc3cc2)OC1

$$$$

Actelion Java MolfileCreator 2.0

  0  0  0  0  0  0              0 V3000
M  V30 BEGIN CTAB
M  V30 COUNTS 31 35 0 0 0
M  V30 BEGIN ATOM
M  V30 1 F 1.732 1.4999 0.0 0
M  V30 2 C 2.598 1.0 0.0 0
M  V30 3 C 2.598 0.0 0.0 0
M  V30 4 C 3.4641 1.4999 0.0 0
M  V30 5 C 1.732 -0.5 0.0 0
M  V30 6 C 3.4641 -0.5 0.0 0
M  V30 7 C 4.3301 1.0 0.0 0
M  V30 8 O 1.732 -1.5 0.0 0
M  V30 9 N 0.866 0.0 0.0 0
M  V30 10 C 4.3301 0.0 0.0 0
M  V30 11 C 5.1961 1.5 0.0 0
M  V30 12 C 0.0 -0.5 0.0 0
M  V30 13 N 5.1961 2.5 0.0 0
M  V30 14 C 6.0621 0.9999 0.0 0
M  V30 15 N 6.0621 3.0 0.0 0
M  V30 16 N 6.9282 1.5 0.0 0
M  V30 17 C 6.9282 2.5 0.0 0
M  V30 18 C 6.27 3.9781 0.0 0
M  V30 19 N 7.6713 3.1691 0.0 0
M  V30 20 C 7.2646 4.0826 0.0 0
M  V30 21 C 5.6009 4.7212 0.0 0
M  V30 22 C 4.6228 4.5133 0.0 0
M  V30 23 C 3.9536 5.2565 0.0 0
M  V30 24 C 4.3137 3.5623 0.0 0
M  V30 25 C 2.9755 5.0486 0.0 0
M  V30 26 C 3.3356 3.3544 0.0 0
M  V30 27 C 2.6665 4.0975 0.0 0
M  V30 28 C 2.3064 5.7917 0.0 0
M  V30 29 N 1.6883 3.8896 0.0 0
M  V30 30 C 1.3282 5.5838 0.0 0
M  V30 31 C 1.0192 4.6327 0.0 0
M  V30 END ATOM
M  V30 BEGIN BOND
M  V30 1 1 1 2
M  V30 2 2 2 3
M  V30 3 1 2 4
M  V30 4 1 3 5
M  V30 5 1 3 6
M  V30 6 2 4 7
M  V30 7 2 5 8
M  V30 8 1 5 9
M  V30 9 2 6 10
M  V30 10 1 7 11
M  V30 11 1 9 12
M  V30 12 2 11 13
M  V30 13 1 11 14
M  V30 14 1 13 15
M  V30 15 2 14 16
M  V30 16 1 15 17
M  V30 17 1 15 18
M  V30 18 2 17 19
M  V30 19 2 18 20
M  V30 20 1 18 21
M  V30 21 1 21 22
M  V30 22 2 22 23
M  V30 23 1 22 24
M  V30 24 1 23 25
M  V30 25 2 24 26
M  V30 26 1 25 27
M  V30 27 2 25 28
M  V30 28 2 27 29
M  V30 29 1 28 30
M  V30 30 1 29 31
M  V30 31 1 7 10
M  V30 32 1 16 17
M  V30 33 1 19 20
M  V30 34 1 26 27
M  V30 35 2 30 31
M  V30 END BOND
M  V30 END CTAB
M  END
>  <Molecule Name>


>  <status>
-

>  <cas>
1029712-80-8

>  <name>
CAPMATINIB

>  <ID>
1983

>  <Smiles>
CNC(c(ccc(-c(cn1)nn2c1ncc2Cc1cc2cccnc2cc1)c1)c1F)=O

$$$$

Actelion Java MolfileCreator 2.0

  0  0  0  0  0  0              0 V3000
M  V30 BEGIN CTAB
M  V30 COUNTS 30 29 0 0 0
M  V30 BEGIN ATOM
M  V30 1 O 9.0932 1.4999 0.0 0
M  V30 2 C 10.3923 2.2499 0.0 0
M  V30 3 O 11.6913 1.4999 0.0 0
M  V30 4 C 10.3923 3.7499 0.0 0
M  V30 5 C 11.6913 0.0 0.0 0
M  V30 6 C 9.0932 4.4999 0.0 0
M  V30 7 C 12.9903 -0.75 0.0 0
M  V30 8 C 10.3923 -0.75 0.0 0
M  V30 9 C 9.0932 5.9999 0.0 0
M  V30 10 O 14.2894 0.0 0.0 0
M  V30 11 O 9.0932 0.0 0.0 0
M  V30 12 C 7.7942 6.7499 0.0 0
M  V30 13 C 15.5884 -0.75 0.0 0
M  V30 14 C 7.7942 -0.75 0.0 0
M  V30 15 C 7.7942 8.2499 0.0 0
M  V30 16 O 15.5884 -2.25 0.0 0
M  V30 17 C 16.8874 0.0 0.0 0
M  V30 18 O 7.7942 -2.25 0.0 0
M  V30 19 C 6.4951 0.0 0.0 0
M  V30 20 C 6.4951 8.9999 0.0 0
M  V30 21 C 18.1865 -0.75 0.0 0
M  V30 22 C 5.1961 -0.75 0.0 0
M  V30 23 C 19.4855 0.0 0.0 0
M  V30 24 C 3.8971 0.0 0.0 0
M  V30 25 C 20.7846 -0.75 0.0 0
M  V30 26 C 2.598 -0.75 0.0 0
M  V30 27 C 22.0836 0.0 0.0 0
M  V30 28 C 1.299 0.0 0.0 0
M  V30 29 C 23.3826 -0.75 0.0 0
M  V30 30 C 0.0 -0.75 0.0 0
M  V30 END ATOM
M  V30 BEGIN BOND
M  V30 1 2 1 2
M  V30 2 1 2 3
M  V30 3 1 2 4
M  V30 4 1 3 5
M  V30 5 1 4 6
M  V30 6 1 5 7
M  V30 7 1 5 8
M  V30 8 1 6 9
M  V30 9 1 7 10
M  V30 10 1 8 11
M  V30 11 1 9 12
M  V30 12 1 10 13
M  V30 13 1 11 14
M  V30 14 1 12 15
M  V30 15 2 13 16
M  V30 16 1 13 17
M  V30 17 2 14 18
M  V30 18 1 14 19
M  V30 19 1 15 20
M  V30 20 1 17 21
M  V30 21 1 19 22
M  V30 22 1 21 23
M  V30 23 1 22 24
M  V30 24 1 23 25
M  V30 25 1 24 26
M  V30 26 1 25 27
M  V30 27 1 26 28
M  V30 28 1 27 29
M  V30 29 1 28 30
M  V30 END BOND
M  V30 END CTAB
M  END
>  <Molecule Name>


>  <status>
-

>  <cas>
620-67-7

>  <name>
TRIHEPTANOIN

>  <ID>
1984

>  <Smiles>
CCCCCCC(OCC(COC(CCCCCC)=O)OC(CCCCCC)=O)=O

$$$$

Actelion Java MolfileCreator 2.0

  0  0  0  0  0  0              0 V3000
M  V30 BEGIN CTAB
M  V30 COUNTS 9 8 0 0 0
M  V30 BEGIN ATOM
M  V30 1 O 6.0621 0.0 0.0 0
M  V30 2 C 5.1961 -0.5 0.0 0
M  V30 3 O 5.1961 -1.4999 0.0 0 CHG=-1
M  V30 4 C 4.3301 0.0 0.0 0
M  V30 5 C 3.4641 -0.5 0.0 0
M  V30 6 C 2.598 0.0 0.0 0
M  V30 7 C 1.732 -0.5 0.0 0
M  V30 8 C 0.866 0.0 0.0 0
M  V30 9 C 0.0 -0.5 0.0 0
M  V30 END ATOM
M  V30 BEGIN BOND
M  V30 1 2 1 2
M  V30 2 1 2 3
M  V30 3 1 2 4
M  V30 4 1 4 5
M  V30 5 1 5 6
M  V30 6 1 6 7
M  V30 7 1 7 8
M  V30 8 1 8 9
M  V30 END BOND
M  V30 END CTAB
M  END
>  <Molecule Name>


>  <status>
-

>  <cas>
7563-37-3

>  <name>
M TRIHEPTANOIN

>  <ID>
1985

>  <Smiles>
CCCCCCC([O-])=O

$$$$
[H][C@@]69SC[C@]1(NCCc2c1[nH]c3ccc(OC)cc23)C(=O)OCC(c5c4OCOc4c(C)c(OC(C)=O)c...
Actelion Java MolfileCreator 2.0

  0  0  0  0  0  0              0 V3000
M  V30 BEGIN CTAB
M  V30 COUNTS 56 65 0 0 0
M  V30 BEGIN ATOM
M  V30 1 S 1.918 -0.0363 0.0 0
M  V30 2 C 1.732 1.4999 0.0 0 CFG=1
M  V30 3 C 2.6881 -0.774 0.0 0
M  V30 4 C 2.598 0.9999 0.0 0
M  V30 5 C 1.732 2.4999 0.0 0 CFG=1
M  V30 6 C 3.7362 -0.8824 0.0 0 CFG=1
M  V30 7 C 2.5992 0.0011 0.0 0
M  V30 8 C 3.4641 1.4999 0.0 0
M  V30 9 N 2.598 2.9999 0.0 0
M  V30 10 C 0.866 2.9999 0.0 0 CFG=1
M  V30 11 N 4.6337 -1.1875 0.0 0
M  V30 12 C 4.5484 -0.4295 0.0 0
M  V30 13 C 2.9395 -1.5476 0.0 0
M  V30 14 O 1.7256 -0.5067 0.0 0
M  V30 15 C 3.4542 -0.4613 0.0 0
M  V30 16 C 4.3301 1.0 0.0 0
M  V30 17 C 3.4641 2.4999 0.0 0 CFG=2
M  V30 18 C 2.598 4.0 0.0 0 CFG=2
M  V30 19 N 0.866 3.9999 0.0 0
M  V30 20 C -0.2886 3.6666 0.0 0
M  V30 21 C 4.8416 -2.1656 0.0 0
M  V30 22 O 5.2918 -1.0476 0.0 0
M  V30 23 O 4.9554 0.535 0.0 0
M  V30 24 N 1.9449 -1.4431 0.0 0
M  V30 25 C 3.1474 -2.5258 0.0 0
M  V30 26 C 0.866 0.0 0.0 0
M  V30 27 C 4.3071 0.0139 0.0 0
M  V30 28 C 3.5257 -1.5685 0.0 0
M  V30 29 O 5.2911 1.3111 0.0 0
M  V30 30 C 4.7258 1.5799 0.0 0
M  V30 31 O 3.4641 4.5 0.0 0
M  V30 32 C 1.732 4.4999 0.0 0 CFG=2
M  V30 33 C 0.0768 4.4556 0.0 0
M  V30 34 C -1.1547 3.1666 0.0 0
M  V30 35 C -0.3224 4.6861 0.0 0
M  V30 36 C 4.0984 -2.8348 0.0 0
M  V30 37 C 1.5382 -2.3566 0.0 0
M  V30 38 C 2.2813 -3.0258 0.0 0
M  V30 39 O 0.866 1.0 0.0 0
M  V30 40 C 0.0 -0.5 0.0 0
M  V30 41 O 5.2811 -0.309 0.0 0
M  V30 42 C 5.8689 0.5 0.0 0
M  V30 43 C 0.5773 5.1666 0.0 0
M  V30 44 O -1.1547 2.1666 0.0 0
M  V30 45 C -2.0207 3.6666 0.0 0
M  V30 46 C -1.1547 5.1666 0.0 0
M  V30 47 C 0.5871 -2.6656 0.0 0
M  V30 48 C 2.0734 -4.0039 0.0 0
M  V30 49 O -2.8867 3.1666 0.0 0
M  V30 50 C -2.0207 4.6666 0.0 0
M  V30 51 C 0.3792 -3.6438 0.0 0
M  V30 52 C 1.1224 -4.3129 0.0 0
M  V30 53 C -2.8867 2.1666 0.0 0
M  V30 54 C -2.8867 5.1666 0.0 0
M  V30 55 O 0.9145 -5.2911 0.0 0
M  V30 56 C 1.6576 -5.9602 0.0 0
M  V30 END ATOM
M  V30 BEGIN BOND
M  V30 1 1 2 1 CFG=3
M  V30 2 1 1 3
M  V30 3 1 2 4
M  V30 4 1 5 2
M  V30 5 1 6 3
M  V30 6 2 4 7
M  V30 7 1 4 8
M  V30 8 1 5 9 CFG=3
M  V30 9 1 10 5
M  V30 10 1 6 11 CFG=3
M  V30 11 1 6 12
M  V30 12 1 6 13
M  V30 13 1 7 14
M  V30 14 1 7 15
M  V30 15 2 8 16
M  V30 16 1 17 8
M  V30 17 1 18 9
M  V30 18 1 10 19
M  V30 19 1 10 20 CFG=3
M  V30 20 1 11 21
M  V30 21 2 12 22
M  V30 22 1 12 23
M  V30 23 1 13 24
M  V30 24 2 13 25
M  V30 25 1 14 26
M  V30 26 2 15 27
M  V30 27 1 15 28
M  V30 28 1 16 29
M  V30 29 1 17 30
M  V30 30 1 18 31 CFG=1
M  V30 31 1 32 18
M  V30 32 1 19 33
M  V30 33 2 20 34
M  V30 34 1 20 35
M  V30 35 1 21 36
M  V30 36 1 24 37
M  V30 37 1 25 38
M  V30 38 2 26 39
M  V30 39 1 26 40
M  V30 40 1 27 41
M  V30 41 1 29 42
M  V30 42 1 32 43 CFG=3
M  V30 43 1 34 44
M  V30 44 1 34 45
M  V30 45 2 35 46
M  V30 46 1 37 47
M  V30 47 1 38 48
M  V30 48 1 45 49
M  V30 49 2 45 50
M  V30 50 2 47 51
M  V30 51 2 48 52
M  V30 52 1 49 53
M  V30 53 1 50 54
M  V30 54 1 52 55
M  V30 55 1 55 56
M  V30 56 1 17 9 CFG=3
M  V30 57 1 16 27
M  V30 58 1 19 32
M  V30 59 1 23 30
M  V30 60 1 25 36
M  V30 61 1 35 43
M  V30 62 2 37 38
M  V30 63 1 41 42
M  V30 64 1 46 50
M  V30 65 1 51 52
M  V30 END BOND
M  V30 BEGIN COLLECTION
M  V30 MDLV30/STERAC1 ATOMS=(7 2 5 6 10 17 18 32)
M  V30 END COLLECTION
M  V30 END CTAB
M  END
>  <Molecule Name>
[H][C@@]69SC[C@]1(NCCc2c1[nH]c3ccc(OC)cc23)C(=O)OCC(c5c4OCOc4c(C)c(OC(C)=O)c...

>  <status>
-

>  <cas>
497871-47-3

>  <name>
LURBINECTEDIN

>  <ID>
1986

>  <Smiles>
CC(Oc1c([C@@H]([C@H]([C@H](c2c3O)N(C)[C@@H]4Cc2cc(C)c3OC)N([C@@H]2COC3=O)[C@@H]4O)SC[C@@]33NCCc4c3[nH]c(cc3)c4cc3OC)c2c2OCOc2c1C)=O

$$$$

Actelion Java MolfileCreator 2.0

  0  0  0  0  0  0              0 V3000
M  V30 BEGIN CTAB
M  V30 COUNTS 35 39 0 0 0
M  V30 BEGIN ATOM
M  V30 1 F 0.866 -1.9999 0.0 0
M  V30 2 C 1.732 -1.4999 0.0 0
M  V30 3 C 2.598 -1.9999 0.0 0
M  V30 4 C 1.732 -0.5 0.0 0
M  V30 5 N 2.598 -3.0 0.0 0
M  V30 6 C 3.4641 -1.4999 0.0 0
M  V30 7 O 0.866 0.0 0.0 0
M  V30 8 C 2.598 0.0 0.0 0
M  V30 9 C 3.4641 -3.5 0.0 0
M  V30 10 C 1.732 -3.5 0.0 0
M  V30 11 F 4.3301 -1.9999 0.0 0
M  V30 12 C 3.4641 -0.5 0.0 0
M  V30 13 C 0.0 -0.5 0.0 0
M  V30 14 O 4.3301 -3.0 0.0 0
M  V30 15 N 3.4641 -4.5 0.0 0
M  V30 16 C 1.732 -4.5 0.0 0
M  V30 17 O 4.3301 0.0 0.0 0
M  V30 18 C 2.598 -5.0 0.0 0
M  V30 19 C 4.3301 -5.0 0.0 0
M  V30 20 C 0.866 -4.9999 0.0 0
M  V30 21 C 4.3301 1.0 0.0 0
M  V30 22 C 2.598 -6.0 0.0 0
M  V30 23 C 5.1961 -4.5 0.0 0
M  V30 24 N 0.866 -6.0 0.0 0
M  V30 25 C 1.732 -6.5 0.0 0
M  V30 26 C 3.3412 -6.6691 0.0 0
M  V30 27 N 1.9399 -7.4781 0.0 0
M  V30 28 C 2.9344 -7.5826 0.0 0
M  V30 29 C 3.4344 -8.4487 0.0 0
M  V30 30 N 4.4344 -8.4487 0.0 0
M  V30 31 C 4.9344 -9.3147 0.0 0
M  V30 32 C 4.9344 -7.5826 0.0 0
M  V30 33 C 5.9344 -9.3147 0.0 0
M  V30 34 C 5.9344 -7.5826 0.0 0
M  V30 35 O 6.4344 -8.4487 0.0 0
M  V30 END ATOM
M  V30 BEGIN BOND
M  V30 1 1 1 2
M  V30 2 2 2 3
M  V30 3 1 2 4
M  V30 4 1 3 5
M  V30 5 1 3 6
M  V30 6 1 4 7
M  V30 7 2 4 8
M  V30 8 1 5 9
M  V30 9 1 5 10
M  V30 10 1 6 11
M  V30 11 2 6 12
M  V30 12 1 7 13
M  V30 13 2 9 14
M  V30 14 1 9 15
M  V30 15 1 10 16
M  V30 16 1 12 17
M  V30 17 1 15 18
M  V30 18 1 15 19
M  V30 19 1 16 20
M  V30 20 1 17 21
M  V30 21 1 18 22
M  V30 22 1 19 23
M  V30 23 2 20 24
M  V30 24 2 22 25
M  V30 25 1 22 26
M  V30 26 1 25 27
M  V30 27 2 26 28
M  V30 28 1 28 29
M  V30 29 1 29 30
M  V30 30 1 30 31
M  V30 31 1 30 32
M  V30 32 1 31 33
M  V30 33 1 32 34
M  V30 34 1 33 35
M  V30 35 1 8 12
M  V30 36 2 16 18
M  V30 37 1 24 25
M  V30 38 1 27 28
M  V30 39 1 34 35
M  V30 END BOND
M  V30 END CTAB
M  END
>  <Molecule Name>


>  <status>
-

>  <cas>
1513857-77-6

>  <name>
PEMIGATINIB

>  <ID>
1987

>  <Smiles>
CCN(c1c(CN2c(c(F)c(cc3OC)OC)c3F)cnc3c1cc(CN1CCOCC1)[nH]3)C2=O

$$$$

Actelion Java MolfileCreator 2.0

  0  0  0  0  0  0              0 V3000
M  V30 BEGIN CTAB
M  V30 COUNTS 27 29 0 0 0
M  V30 BEGIN ATOM
M  V30 1 Br 6.4951 -9.0 0.0 0
M  V30 2 C 6.4951 -7.4999 0.0 0
M  V30 3 C 5.1961 -6.7499 0.0 0
M  V30 4 C 7.7942 -6.75 0.0 0
M  V30 5 C 5.1961 -5.2499 0.0 0
M  V30 6 C 7.7942 -5.25 0.0 0
M  V30 7 Cl 3.8971 -4.4999 0.0 0
M  V30 8 C 6.4951 -4.4999 0.0 0
M  V30 9 N 6.4951 -2.9999 0.0 0
M  V30 10 C 7.7942 -2.25 0.0 0
M  V30 11 C 9.0932 -3.0 0.0 0
M  V30 12 C 7.7942 -0.75 0.0 0
M  V30 13 F 9.0932 -4.5 0.0 0
M  V30 14 C 10.3923 -2.25 0.0 0
M  V30 15 C 6.4951 0.0 0.0 0
M  V30 16 C 9.0932 0.0 0.0 0
M  V30 17 N 11.8188 -2.7135 0.0 0
M  V30 18 C 10.3923 -0.75 0.0 0
M  V30 19 O 5.1961 -0.75 0.0 0
M  V30 20 N 6.4951 1.5 0.0 0
M  V30 21 C 12.7005 -1.5 0.0 0
M  V30 22 N 11.8188 -0.2864 0.0 0
M  V30 23 O 5.1961 2.25 0.0 0
M  V30 24 C 12.2824 1.1401 0.0 0
M  V30 25 C 5.1961 3.75 0.0 0
M  V30 26 C 3.8971 4.5 0.0 0
M  V30 27 O 3.8971 6.0 0.0 0
M  V30 END ATOM
M  V30 BEGIN BOND
M  V30 1 1 1 2
M  V30 2 2 2 3
M  V30 3 1 2 4
M  V30 4 1 3 5
M  V30 5 2 4 6
M  V30 6 1 5 7
M  V30 7 2 5 8
M  V30 8 1 8 9
M  V30 9 1 9 10
M  V30 10 2 10 11
M  V30 11 1 10 12
M  V30 12 1 11 13
M  V30 13 1 11 14
M  V30 14 1 12 15
M  V30 15 2 12 16
M  V30 16 1 14 17
M  V30 17 2 14 18
M  V30 18 2 15 19
M  V30 19 1 15 20
M  V30 20 2 17 21
M  V30 21 1 18 22
M  V30 22 1 20 23
M  V30 23 1 22 24
M  V30 24 1 23 25
M  V30 25 1 25 26
M  V30 26 1 26 27
M  V30 27 1 6 8
M  V30 28 1 16 18
M  V30 29 1 21 22
M  V30 END BOND
M  V30 END CTAB
M  END
>  <Molecule Name>


>  <status>
-

>  <cas>
606143-52-6

>  <name>
SELUMETINIB

>  <ID>
1988

>  <Smiles>
Cn1c(cc(C(NOCCO)=O)c(Nc(ccc(Br)c2)c2Cl)c2F)c2nc1

$$$$

Actelion Java MolfileCreator 2.0

  0  0  0  0  0  0              0 V3000
M  V30 BEGIN CTAB
M  V30 COUNTS 26 28 0 0 0
M  V30 BEGIN ATOM
M  V30 1 Br 6.4951 -9.0 0.0 0
M  V30 2 C 6.4951 -7.4999 0.0 0
M  V30 3 C 5.1961 -6.7499 0.0 0
M  V30 4 C 7.7942 -6.75 0.0 0
M  V30 5 C 5.1961 -5.2499 0.0 0
M  V30 6 C 7.7942 -5.25 0.0 0
M  V30 7 Cl 3.8971 -4.4999 0.0 0
M  V30 8 C 6.4951 -4.4999 0.0 0
M  V30 9 N 6.4951 -2.9999 0.0 0
M  V30 10 C 7.7942 -2.25 0.0 0
M  V30 11 C 9.0932 -3.0 0.0 0
M  V30 12 C 7.7942 -0.75 0.0 0
M  V30 13 F 9.0932 -4.5 0.0 0
M  V30 14 C 10.3923 -2.25 0.0 0
M  V30 15 C 6.4951 0.0 0.0 0
M  V30 16 C 9.0932 0.0 0.0 0
M  V30 17 N 11.8188 -2.7135 0.0 0
M  V30 18 C 10.3923 -0.75 0.0 0
M  V30 19 O 5.1961 -0.75 0.0 0
M  V30 20 N 6.4951 1.5 0.0 0
M  V30 21 C 12.7005 -1.5 0.0 0
M  V30 22 N 11.8188 -0.2864 0.0 0
M  V30 23 O 5.1961 2.25 0.0 0
M  V30 24 C 5.1961 3.75 0.0 0
M  V30 25 C 3.8971 4.5 0.0 0
M  V30 26 O 3.8971 6.0 0.0 0
M  V30 END ATOM
M  V30 BEGIN BOND
M  V30 1 1 1 2
M  V30 2 2 2 3
M  V30 3 1 2 4
M  V30 4 1 3 5
M  V30 5 2 4 6
M  V30 6 1 5 7
M  V30 7 2 5 8
M  V30 8 1 8 9
M  V30 9 1 9 10
M  V30 10 2 10 11
M  V30 11 1 10 12
M  V30 12 1 11 13
M  V30 13 1 11 14
M  V30 14 1 12 15
M  V30 15 2 12 16
M  V30 16 1 14 17
M  V30 17 2 14 18
M  V30 18 2 15 19
M  V30 19 1 15 20
M  V30 20 2 17 21
M  V30 21 1 18 22
M  V30 22 1 20 23
M  V30 23 1 23 24
M  V30 24 1 24 25
M  V30 25 1 25 26
M  V30 26 1 6 8
M  V30 27 1 16 18
M  V30 28 1 21 22
M  V30 END BOND
M  V30 END CTAB
M  END
>  <Molecule Name>


>  <status>
-

>  <cas>
606143-88-8

>  <name>
M SELUMETINIB

>  <ID>
1989

>  <Smiles>
OCCONC(c(c(Nc(ccc(Br)c1)c1Cl)c1F)cc2c1nc[nH]2)=O

$$$$

Actelion Java MolfileCreator 2.0

  0  0  0  0  0  0              0 V3000
M  V30 BEGIN CTAB
M  V30 COUNTS 33 36 0 0 0
M  V30 BEGIN ATOM
M  V30 1 Br 6.0621 -1.9999 0.0 0
M  V30 2 C 5.1961 -1.4999 0.0 0
M  V30 3 C 5.1961 -0.5 0.0 0
M  V30 4 C 4.3301 -1.9999 0.0 0
M  V30 5 C 6.0621 0.0 0.0 0
M  V30 6 C 4.3301 0.0 0.0 0
M  V30 7 C 3.4641 -1.5 0.0 0
M  V30 8 C 6.9282 -0.5 0.0 0
M  V30 9 C 6.0621 0.9999 0.0 0
M  V30 10 C 3.4641 -0.5 0.0 0
M  V30 11 F 2.598 -2.0 0.0 0
M  V30 12 O 6.9282 -1.5 0.0 0
M  V30 13 N 7.7942 0.0 0.0 0
M  V30 14 C 6.9282 1.4999 0.0 0
M  V30 15 N 2.598 0.0 0.0 0
M  V30 16 C 7.7942 0.9999 0.0 0
M  V30 17 C 8.6602 -0.5 0.0 0
M  V30 18 C 6.9282 2.4999 0.0 0
M  V30 19 C 1.732 -0.5 0.0 0
M  V30 20 C 8.6602 1.4999 0.0 0
M  V30 21 C 9.5262 0.0 0.0 0
M  V30 22 N 7.7942 2.9999 0.0 0
M  V30 23 O 1.732 -1.5 0.0 0
M  V30 24 N 0.866 0.0 0.0 0
M  V30 25 C 8.6602 2.4999 0.0 0
M  V30 26 C 0.0 -0.5 0.0 0
M  V30 27 N 9.5262 2.9999 0.0 0
M  V30 28 C -0.866 0.0 0.0 0
M  V30 29 C 0.0 -1.4999 0.0 0
M  V30 30 C 9.5262 3.9999 0.0 0
M  V30 31 C -1.732 -0.4999 0.0 0
M  V30 32 C -0.866 -1.9999 0.0 0
M  V30 33 C -1.732 -1.4999 0.0 0
M  V30 END ATOM
M  V30 BEGIN BOND
M  V30 1 1 1 2
M  V30 2 2 2 3
M  V30 3 1 2 4
M  V30 4 1 3 5
M  V30 5 1 3 6
M  V30 6 2 4 7
M  V30 7 1 5 8
M  V30 8 2 5 9
M  V30 9 2 6 10
M  V30 10 1 7 11
M  V30 11 2 8 12
M  V30 12 1 8 13
M  V30 13 1 9 14
M  V30 14 1 10 15
M  V30 15 1 13 16
M  V30 16 1 13 17
M  V30 17 1 14 18
M  V30 18 1 15 19
M  V30 19 1 16 20
M  V30 20 1 17 21
M  V30 21 2 18 22
M  V30 22 2 19 23
M  V30 23 1 19 24
M  V30 24 2 20 25
M  V30 25 1 24 26
M  V30 26 1 25 27
M  V30 27 2 26 28
M  V30 28 1 26 29
M  V30 29 1 27 30
M  V30 30 1 28 31
M  V30 31 2 29 32
M  V30 32 2 31 33
M  V30 33 1 7 10
M  V30 34 2 14 16
M  V30 35 1 22 25
M  V30 36 1 32 33
M  V30 END BOND
M  V30 END CTAB
M  END
>  <Molecule Name>


>  <status>
-

>  <cas>
1442472-39-0

>  <name>
RIPRETINIB

>  <ID>
1990

>  <Smiles>
CCN(c1c(C=C2c(cc(c(F)c3)NC(Nc4ccccc4)=O)c3Br)cnc(NC)c1)C2=O

$$$$

Actelion Java MolfileCreator 2.0

  0  0  0  0  0  0              0 V3000
M  V30 BEGIN CTAB
M  V30 COUNTS 32 35 0 0 0
M  V30 BEGIN ATOM
M  V30 1 Br 9.0932 -3.0 0.0 0
M  V30 2 C 7.7942 -2.25 0.0 0
M  V30 3 C 7.7942 -0.75 0.0 0
M  V30 4 C 6.4951 -2.9999 0.0 0
M  V30 5 C 9.0932 0.0 0.0 0
M  V30 6 C 6.4951 0.0 0.0 0
M  V30 7 C 5.1961 -2.25 0.0 0
M  V30 8 C 10.3923 -0.75 0.0 0
M  V30 9 C 9.0932 1.4999 0.0 0
M  V30 10 C 5.1961 -0.75 0.0 0
M  V30 11 F 3.8971 -3.0 0.0 0
M  V30 12 O 10.3923 -2.25 0.0 0
M  V30 13 N 11.6913 0.0 0.0 0
M  V30 14 C 10.3923 2.2499 0.0 0
M  V30 15 N 3.8971 0.0 0.0 0
M  V30 16 C 11.6913 1.4999 0.0 0
M  V30 17 C 12.9903 -0.75 0.0 0
M  V30 18 C 10.3923 3.7499 0.0 0
M  V30 19 C 2.598 -0.75 0.0 0
M  V30 20 C 12.9903 2.2499 0.0 0
M  V30 21 C 14.2894 0.0 0.0 0
M  V30 22 N 11.6913 4.4999 0.0 0
M  V30 23 O 2.598 -2.25 0.0 0
M  V30 24 N 1.299 0.0 0.0 0
M  V30 25 C 12.9903 3.7499 0.0 0
M  V30 26 C 0.0 -0.75 0.0 0
M  V30 27 N 14.2894 4.4999 0.0 0
M  V30 28 C -1.299 0.0 0.0 0
M  V30 29 C 0.0 -2.25 0.0 0
M  V30 30 C -2.598 -0.7499 0.0 0
M  V30 31 C -1.299 -2.9999 0.0 0
M  V30 32 C -2.598 -2.2499 0.0 0
M  V30 END ATOM
M  V30 BEGIN BOND
M  V30 1 1 1 2
M  V30 2 2 2 3
M  V30 3 1 2 4
M  V30 4 1 3 5
M  V30 5 1 3 6
M  V30 6 2 4 7
M  V30 7 1 5 8
M  V30 8 2 5 9
M  V30 9 2 6 10
M  V30 10 1 7 11
M  V30 11 2 8 12
M  V30 12 1 8 13
M  V30 13 1 9 14
M  V30 14 1 10 15
M  V30 15 1 13 16
M  V30 16 1 13 17
M  V30 17 1 14 18
M  V30 18 1 15 19
M  V30 19 1 16 20
M  V30 20 1 17 21
M  V30 21 2 18 22
M  V30 22 2 19 23
M  V30 23 1 19 24
M  V30 24 2 20 25
M  V30 25 1 24 26
M  V30 26 1 25 27
M  V30 27 2 26 28
M  V30 28 1 26 29
M  V30 29 1 28 30
M  V30 30 2 29 31
M  V30 31 2 30 32
M  V30 32 1 7 10
M  V30 33 2 14 16
M  V30 34 1 22 25
M  V30 35 1 31 32
M  V30 END BOND
M  V30 END CTAB
M  END
>  <Molecule Name>


>  <status>
-

>  <cas>
1442473-09-7

>  <name>
M RIPRETINIB

>  <ID>
1991

>  <Smiles>
CCN(c1c(C=C2c(cc(c(F)c3)NC(Nc4ccccc4)=O)c3Br)cnc(N)c1)C2=O

$$$$

Actelion Java MolfileCreator 2.0

  0  0  0  0  0  0              0 V3000
M  V30 BEGIN CTAB
M  V30 COUNTS 29 33 0 0 0
M  V30 BEGIN ATOM
M  V30 1 O -0.0056 -4.1007 0.0 0
M  V30 2 C 0.9889 -3.9962 0.0 0
M  V30 3 N 1.3956 -3.0826 0.0 0
M  V30 4 C 1.5766 -4.8052 0.0 0
M  V30 5 C 2.3901 -2.9781 0.0 0
M  V30 6 C 0.9889 -2.1691 0.0 0
M  V30 7 C 2.5712 -4.7007 0.0 0
M  V30 8 C 1.1699 -5.7187 0.0 0
M  V30 9 C 2.598 -1.9999 0.0 0
M  V30 10 C 2.9779 -3.7871 0.0 0
M  V30 11 C 1.732 -1.5 0.0 0
M  V30 12 C 3.1589 -5.5097 0.0 0 CFG=2
M  V30 13 O 1.7577 -6.5278 0.0 0
M  V30 14 N 3.4641 -1.4999 0.0 0
M  V30 15 C 1.732 -0.5 0.0 0
M  V30 16 O 3.7467 -6.3187 0.0 0
M  V30 17 C 2.7522 -6.4232 0.0 0
M  V30 18 C 4.1535 -5.4051 0.0 0
M  V30 19 C 3.4641 -0.4999 0.0 0
M  V30 20 C 2.598 0.0 0.0 0
M  V30 21 C 0.866 0.0 0.0 0
M  V30 22 O 3.34 -7.2322 0.0 0
M  V30 23 C 4.7413 -6.2142 0.0 0
M  V30 24 C 4.3301 0.0 0.0 0
M  V30 25 C 2.598 1.0 0.0 0
M  V30 26 C 0.0 -0.5 0.0 0
M  V30 27 C 4.3301 1.0 0.0 0
M  V30 28 C 3.4641 1.5 0.0 0
M  V30 29 O 3.4641 2.5 0.0 0
M  V30 END ATOM
M  V30 BEGIN BOND
M  V30 1 2 1 2
M  V30 2 1 2 3
M  V30 3 1 2 4
M  V30 4 1 3 5
M  V30 5 1 3 6
M  V30 6 2 4 7
M  V30 7 1 4 8
M  V30 8 1 5 9
M  V30 9 2 5 10
M  V30 10 1 6 11
M  V30 11 1 12 7
M  V30 12 1 8 13
M  V30 13 2 9 14
M  V30 14 2 11 15
M  V30 15 1 12 16 CFG=3
M  V30 16 1 12 17
M  V30 17 1 12 18
M  V30 18 1 14 19
M  V30 19 1 15 20
M  V30 20 1 15 21
M  V30 21 2 17 22
M  V30 22 1 18 23
M  V30 23 2 19 24
M  V30 24 2 20 25
M  V30 25 1 21 26
M  V30 26 1 24 27
M  V30 27 1 25 28
M  V30 28 1 28 29
M  V30 29 1 7 10
M  V30 30 1 9 11
M  V30 31 1 13 17
M  V30 32 1 19 20
M  V30 33 2 27 28
M  V30 END BOND
M  V30 BEGIN COLLECTION
M  V30 MDLV30/STERAC1 ATOMS=(1 12)
M  V30 END COLLECTION
M  V30 END CTAB
M  END
>  <Molecule Name>


>  <status>
-

>  <cas>
86639-52-3

>  <name>
SN38

>  <ID>
1992

>  <Smiles>
CCC(C(C=C1N2Cc3c(CC)c4cc(O)ccc4nc13)=C(CO1)C2=O)(C1=O)O

$$$$

Actelion Java MolfileCreator 2.0

  0  0  0  0  0  0              0 V3000
M  V30 BEGIN CTAB
M  V30 COUNTS 32 37 0 0 0
M  V30 BEGIN ATOM
M  V30 1 F -0.99 6.7322 0.0 0
M  V30 2 C -1.5778 5.9232 0.0 0
M  V30 3 C -2.5723 6.0278 0.0 0
M  V30 4 C -1.1711 5.0097 0.0 0
M  V30 5 C -3.1601 5.2187 0.0 0
M  V30 6 C -2.9791 6.9413 0.0 0
M  V30 7 C -1.7589 4.2007 0.0 0
M  V30 8 C -2.7534 4.3052 0.0 0
M  V30 9 C -4.1546 5.3233 0.0 0
M  V30 10 N -1.3521 3.2871 0.0 0
M  V30 11 C -3.3412 3.4962 0.0 0
M  V30 12 C -4.7424 4.5142 0.0 0
M  V30 13 C -1.9399 2.4781 0.0 0
M  V30 14 C -2.9344 2.5826 0.0 0
M  V30 15 C -4.3357 3.6007 0.0 0 CFG=2
M  V30 16 C -1.732 1.5 0.0 0
M  V30 17 C -3.3412 1.6691 0.0 0
M  V30 18 N -4.9235 2.7917 0.0 0
M  V30 19 N -2.598 1.0 0.0 0
M  V30 20 C -0.866 1.0 0.0 0
M  V30 21 C -2.598 0.0 0.0 0
M  V30 22 C -0.866 0.0 0.0 0
M  V30 23 O -3.4641 -0.4999 0.0 0
M  V30 24 C -1.732 -0.4999 0.0 0
M  V30 25 C 0.0 -0.5 0.0 0 CFG=2
M  V30 26 C -1.732 -1.4999 0.0 0
M  V30 27 O 0.866 -1.0 0.0 0
M  V30 28 C 0.0 -1.5 0.0 0
M  V30 29 C 0.866 0.0 0.0 0
M  V30 30 O -0.866 -1.9999 0.0 0
M  V30 31 O 0.866 -2.0 0.0 0
M  V30 32 C 1.732 -0.5 0.0 0
M  V30 END ATOM
M  V30 BEGIN BOND
M  V30 1 1 1 2
M  V30 2 1 2 3
M  V30 3 2 2 4
M  V30 4 2 3 5
M  V30 5 1 3 6
M  V30 6 1 4 7
M  V30 7 1 5 8
M  V30 8 1 5 9
M  V30 9 2 7 10
M  V30 10 2 8 11
M  V30 11 1 9 12
M  V30 12 1 10 13
M  V30 13 1 11 14
M  V30 14 1 15 11
M  V30 15 1 13 16
M  V30 16 1 14 17
M  V30 17 1 15 18 CFG=1
M  V30 18 1 16 19
M  V30 19 2 16 20
M  V30 20 1 19 21
M  V30 21 1 20 22
M  V30 22 2 21 23
M  V30 23 1 21 24
M  V30 24 1 25 22
M  V30 25 1 24 26
M  V30 26 1 25 27 CFG=3
M  V30 27 1 25 28
M  V30 28 1 25 29
M  V30 29 1 26 30
M  V30 30 2 28 31
M  V30 31 1 29 32
M  V30 32 1 7 8
M  V30 33 1 12 15
M  V30 34 2 13 14
M  V30 35 1 17 19
M  V30 36 2 22 24
M  V30 37 1 28 30
M  V30 END BOND
M  V30 BEGIN COLLECTION
M  V30 MDLV30/STERAC1 ATOMS=(2 15 25)
M  V30 END COLLECTION
M  V30 END CTAB
M  END
>  <Molecule Name>


>  <status>
-

>  <cas>
171335-80-1

>  <name>
EXATECAN

>  <ID>
1993

>  <Smiles>
CC[C@](C(C=C1N2Cc3c1nc(cc(c(C)c1CC4)F)c1c3[C@H]4N)=C(CO1)C2=O)(C1=O)O

$$$$

Actelion Java MolfileCreator 2.0

  0  0  0  0  0  0              0 V3000
M  V30 BEGIN CTAB
M  V30 COUNTS 27 30 0 0 0
M  V30 BEGIN ATOM
M  V30 1 S 3.5116 2.5932 0.0 0
M  V30 2 C 2.598 3.0 0.0 0
M  V30 3 C 4.1807 3.3364 0.0 0
M  V30 4 C 2.7026 3.9945 0.0 0
M  V30 5 C 1.732 2.4999 0.0 0
M  V30 6 C 3.6807 4.2024 0.0 0
M  V30 7 O 1.9594 4.6636 0.0 0
M  V30 8 N 1.732 1.4999 0.0 0
M  V30 9 C 2.1673 5.6418 0.0 0
M  V30 10 C 0.866 0.9999 0.0 0
M  V30 11 C 0.866 0.0 0.0 0
M  V30 12 C 0.0 -0.5 0.0 0 CFG=1
M  V30 13 C 0.866 -1.0 0.0 0
M  V30 14 C -0.866 0.0 0.0 0
M  V30 15 C 0.0 -1.5 0.0 0
M  V30 16 N 0.866 -2.0 0.0 0
M  V30 17 C 1.732 -0.5 0.0 0
M  V30 18 C -1.732 -0.4999 0.0 0
M  V30 19 C -0.866 -1.9999 0.0 0
M  V30 20 C 1.732 -2.5 0.0 0
M  V30 21 C 2.598 -1.0 0.0 0
M  V30 22 O -1.732 -1.4999 0.0 0
M  V30 23 C -1.8365 0.4945 0.0 0
M  V30 24 C -2.6455 -0.9067 0.0 0
M  V30 25 C 2.598 -2.0 0.0 0
M  V30 26 C -2.8147 0.7024 0.0 0
M  V30 27 C -3.3147 -0.1635 0.0 0
M  V30 END ATOM
M  V30 BEGIN BOND
M  V30 1 1 1 2
M  V30 2 1 1 3
M  V30 3 2 2 4
M  V30 4 1 2 5
M  V30 5 2 3 6
M  V30 6 1 4 7
M  V30 7 1 5 8
M  V30 8 1 7 9
M  V30 9 1 8 10
M  V30 10 1 10 11
M  V30 11 1 12 11
M  V30 12 1 12 13 CFG=1
M  V30 13 1 12 14
M  V30 14 1 12 15
M  V30 15 2 13 16
M  V30 16 1 13 17
M  V30 17 1 14 18
M  V30 18 1 15 19
M  V30 19 1 16 20
M  V30 20 2 17 21
M  V30 21 1 18 22
M  V30 22 1 18 23
M  V30 23 1 18 24
M  V30 24 2 20 25
M  V30 25 1 23 26
M  V30 26 1 24 27
M  V30 27 1 4 6
M  V30 28 1 19 22
M  V30 29 1 21 25
M  V30 30 1 26 27
M  V30 END BOND
M  V30 BEGIN COLLECTION
M  V30 MDLV30/STERAC1 ATOMS=(1 12)
M  V30 END COLLECTION
M  V30 END CTAB
M  END
>  <Molecule Name>


>  <status>
-

>  <cas>
1401028-24-7

>  <name>
OLICERIDINE

>  <ID>
1994

>  <Smiles>
COc1c(CNCCC2(CC3(CCCC3)OCC2)c2ncccc2)scc1

$$$$

Actelion Java MolfileCreator 2.0

  0  0  0  0  0  0              0 V3000
M  V30 BEGIN CTAB
M  V30 COUNTS 17 18 0 0 0
M  V30 BEGIN ATOM
M  V30 1 O 2.598 1.0 0.0 0
M  V30 2 C 2.598 0.0 0.0 0 CFG=2
M  V30 3 C 3.4641 1.4999 0.0 0
M  V30 4 C 3.4641 -0.5 0.0 0
M  V30 5 C 1.732 -0.5 0.0 0
M  V30 6 C 4.3301 1.0 0.0 0
M  V30 7 N 4.3301 0.0 0.0 0
M  V30 8 O 0.866 0.0 0.0 0
M  V30 9 C 0.0 -0.5 0.0 0
M  V30 10 C -0.866 0.0 0.0 0
M  V30 11 C 0.0 -1.4999 0.0 0
M  V30 12 O -0.866 1.0 0.0 0
M  V30 13 C -1.732 -0.4999 0.0 0
M  V30 14 C -0.866 -1.9999 0.0 0
M  V30 15 C 0.0 1.5 0.0 0
M  V30 16 C -1.732 -1.4999 0.0 0
M  V30 17 C 0.0 2.5 0.0 0
M  V30 END ATOM
M  V30 BEGIN BOND
M  V30 1 1 2 1
M  V30 2 1 1 3
M  V30 3 1 2 4
M  V30 4 1 2 5 CFG=3
M  V30 5 1 3 6
M  V30 6 1 4 7
M  V30 7 1 5 8
M  V30 8 1 8 9
M  V30 9 2 9 10
M  V30 10 1 9 11
M  V30 11 1 10 12
M  V30 12 1 10 13
M  V30 13 2 11 14
M  V30 14 1 12 15
M  V30 15 2 13 16
M  V30 16 1 15 17
M  V30 17 1 6 7
M  V30 18 1 14 16
M  V30 END BOND
M  V30 BEGIN COLLECTION
M  V30 MDLV30/STERAC1 ATOMS=(1 2)
M  V30 END COLLECTION
M  V30 END CTAB
M  END
>  <Molecule Name>


>  <status>
-

>  <cas>
46817-91-8

>  <name>
VILOXAZINE

>  <ID>
1995

>  <Smiles>
CCOc(cccc1)c1OCC1OCCNC1

$$$$

Actelion Java MolfileCreator 2.0

  0  0  0  0  0  0              0 V3000
M  V30 BEGIN CTAB
M  V30 COUNTS 17 18 0 0 0
M  V30 BEGIN ATOM
M  V30 1 O 2.598 1.0 0.0 0
M  V30 2 C 2.598 0.0 0.0 0 CFG=2
M  V30 3 C 3.4641 1.4999 0.0 0
M  V30 4 C 3.4641 -0.5 0.0 0
M  V30 5 C 1.732 -0.5 0.0 0
M  V30 6 C 4.3301 1.0 0.0 0
M  V30 7 N 4.3301 0.0 0.0 0
M  V30 8 O 0.866 0.0 0.0 0
M  V30 9 C 0.0 -0.5 0.0 0
M  V30 10 C -0.866 0.0 0.0 0
M  V30 11 C 0.0 -1.4999 0.0 0
M  V30 12 O -0.866 1.0 0.0 0
M  V30 13 C -1.732 -0.4999 0.0 0
M  V30 14 C -0.866 -1.9999 0.0 0
M  V30 15 C 0.0 1.5 0.0 0
M  V30 16 C -1.732 -1.4999 0.0 0
M  V30 17 C 0.0 2.5 0.0 0
M  V30 END ATOM
M  V30 BEGIN BOND
M  V30 1 1 2 1
M  V30 2 1 1 3
M  V30 3 1 2 4
M  V30 4 1 2 5 CFG=3
M  V30 5 1 3 6
M  V30 6 1 4 7
M  V30 7 1 5 8
M  V30 8 1 8 9
M  V30 9 2 9 10
M  V30 10 1 9 11
M  V30 11 1 10 12
M  V30 12 1 10 13
M  V30 13 2 11 14
M  V30 14 1 12 15
M  V30 15 2 13 16
M  V30 16 1 15 17
M  V30 17 1 6 7
M  V30 18 1 14 16
M  V30 END BOND
M  V30 BEGIN COLLECTION
M  V30 MDLV30/STERAC1 ATOMS=(1 2)
M  V30 END COLLECTION
M  V30 END CTAB
M  END
>  <Molecule Name>


>  <status>
-

>  <cas>
46817-91-8

>  <name>
VILOXAZINE

>  <ID>
1996

>  <Smiles>
CCOc(cccc1)c1OCC1OCCNC1

$$$$

Actelion Java MolfileCreator 2.0

  0  0  0  0  0  0              0 V3000
M  V30 BEGIN CTAB
M  V30 COUNTS 29 32 0 0 0
M  V30 BEGIN ATOM
M  V30 1 F 4.3301 0.9999 0.0 0
M  V30 2 C 4.3301 0.0 0.0 0
M  V30 3 C 3.4641 -0.5 0.0 0
M  V30 4 C 5.1961 -0.5 0.0 0
M  V30 5 C 3.4641 -1.5 0.0 0
M  V30 6 C 2.598 0.0 0.0 0
M  V30 7 C 5.1961 -1.5 0.0 0
M  V30 8 C 4.3301 -2.0 0.0 0
M  V30 9 N 1.732 -0.5 0.0 0
M  V30 10 F 6.0621 -2.0 0.0 0
M  V30 11 C 0.866 0.0 0.0 0
M  V30 12 O 0.866 1.0 0.0 0
M  V30 13 C 0.0 -0.5 0.0 0
M  V30 14 C -0.866 0.0 0.0 0
M  V30 15 C 0.0 -1.4999 0.0 0
M  V30 16 O -0.866 1.0 0.0 0
M  V30 17 C -1.732 -0.4999 0.0 0
M  V30 18 N -0.866 -1.9999 0.0 0
M  V30 19 O -2.598 0.0 0.0 0
M  V30 20 C -1.732 -1.4999 0.0 0
M  V30 21 C -0.866 -2.9999 0.0 0
M  V30 22 C -2.598 -1.9999 0.0 0
M  V30 23 C -1.732 -3.4999 0.0 0 CFG=1
M  V30 24 O -3.4641 -1.4999 0.0 0
M  V30 25 N -2.598 -2.9999 0.0 0
M  V30 26 O -1.9399 -4.4781 0.0 0
M  V30 27 C -3.3412 -3.6691 0.0 0 CFG=1
M  V30 28 C -2.9344 -4.5826 0.0 0
M  V30 29 C -4.3193 -3.4612 0.0 0
M  V30 END ATOM
M  V30 BEGIN BOND
M  V30 1 1 1 2
M  V30 2 2 2 3
M  V30 3 1 2 4
M  V30 4 1 3 5
M  V30 5 1 3 6
M  V30 6 2 4 7
M  V30 7 2 5 8
M  V30 8 1 6 9
M  V30 9 1 7 10
M  V30 10 1 9 11
M  V30 11 2 11 12
M  V30 12 1 11 13
M  V30 13 1 13 14
M  V30 14 2 13 15
M  V30 15 2 14 16
M  V30 16 1 14 17
M  V30 17 1 15 18
M  V30 18 1 17 19
M  V30 19 2 17 20
M  V30 20 1 18 21
M  V30 21 1 20 22
M  V30 22 1 23 21
M  V30 23 2 22 24
M  V30 24 1 22 25
M  V30 25 1 23 26 CFG=3
M  V30 26 1 27 25
M  V30 27 1 26 28
M  V30 28 1 27 29 CFG=1
M  V30 29 1 7 8
M  V30 30 1 18 20
M  V30 31 1 23 25
M  V30 32 1 27 28
M  V30 END BOND
M  V30 BEGIN COLLECTION
M  V30 MDLV30/STERAC1 ATOMS=(2 23 27)
M  V30 END COLLECTION
M  V30 END CTAB
M  END
>  <Molecule Name>


>  <status>
-

>  <cas>
1051375-10-0

>  <name>
CABOTEGRAVIR

>  <ID>
1997

>  <Smiles>
C[C@H](CO[C@H]1CN(C=C(C(NCc(ccc(F)c2)c2F)=O)C2=O)C3=C2O)N1C3=O

$$$$

Actelion Java MolfileCreator 2.0

  0  0  0  0  0  0              0 V3000
M  V30 BEGIN CTAB
M  V30 COUNTS 32 35 0 0 0
M  V30 BEGIN ATOM
M  V30 1 Cl 4.3301 0.9999 0.0 0
M  V30 2 C 4.3301 0.0 0.0 0
M  V30 3 C 3.4641 -0.5 0.0 0
M  V30 4 C 5.1961 -0.5 0.0 0
M  V30 5 N 2.598 0.0 0.0 0
M  V30 6 C 3.4641 -1.5 0.0 0
M  V30 7 C 5.1961 -1.5 0.0 0
M  V30 8 C 1.732 -0.5 0.0 0
M  V30 9 C 4.3301 -2.0 0.0 0
M  V30 10 O 6.0621 -2.0 0.0 0
M  V30 11 O 1.732 -1.5 0.0 0
M  V30 12 N 0.866 0.0 0.0 0
M  V30 13 C 6.9282 -1.5 0.0 0
M  V30 14 C 0.0 -0.5 0.0 0
M  V30 15 C 7.7942 -2.0 0.0 0
M  V30 16 C 6.9282 -0.5 0.0 0
M  V30 17 N -0.9135 -0.0932 0.0 0
M  V30 18 C -0.1045 -1.4945 0.0 0
M  V30 19 C 8.6602 -1.5 0.0 0
M  V30 20 C 7.7942 -3.0 0.0 0
M  V30 21 C 7.7942 0.0 0.0 0
M  V30 22 O -1.5826 -0.8364 0.0 0
M  V30 23 C -1.0826 -1.7024 0.0 0
M  V30 24 N 8.6602 -0.5 0.0 0
M  V30 25 C 9.5262 -2.0 0.0 0
M  V30 26 C 8.6602 -3.5 0.0 0
M  V30 27 C -1.4894 -2.6159 0.0 0
M  V30 28 C 9.5262 -3.0 0.0 0
M  V30 29 O 8.6602 -4.5 0.0 0
M  V30 30 O 10.3923 -3.5 0.0 0
M  V30 31 C 9.5262 -5.0 0.0 0
M  V30 32 C 11.2583 -3.0 0.0 0
M  V30 END ATOM
M  V30 BEGIN BOND
M  V30 1 1 1 2
M  V30 2 2 2 3
M  V30 3 1 2 4
M  V30 4 1 3 5
M  V30 5 1 3 6
M  V30 6 2 4 7
M  V30 7 1 5 8
M  V30 8 2 6 9
M  V30 9 1 7 10
M  V30 10 2 8 11
M  V30 11 1 8 12
M  V30 12 1 10 13
M  V30 13 1 12 14
M  V30 14 1 13 15
M  V30 15 2 13 16
M  V30 16 2 14 17
M  V30 17 1 14 18
M  V30 18 1 15 19
M  V30 19 2 15 20
M  V30 20 1 16 21
M  V30 21 1 17 22
M  V30 22 2 18 23
M  V30 23 1 19 24
M  V30 24 2 19 25
M  V30 25 1 20 26
M  V30 26 1 23 27
M  V30 27 1 25 28
M  V30 28 1 26 29
M  V30 29 1 28 30
M  V30 30 1 29 31
M  V30 31 1 30 32
M  V30 32 1 7 9
M  V30 33 2 21 24
M  V30 34 1 22 23
M  V30 35 2 26 28
M  V30 END BOND
M  V30 END CTAB
M  END
>  <Molecule Name>


>  <status>
-

>  <cas>
475108-18-0

>  <name>
TIVOZANIB

>  <ID>
1998

>  <Smiles>
Cc1cc(NC(Nc(ccc(Oc(c2c3)ccnc2cc(OC)c3OC)c2)c2Cl)=O)no1

$$$$

Actelion Java MolfileCreator 2.0

  0  0  0  0  0  0              0 V3000
M  V30 BEGIN CTAB
M  V30 COUNTS 36 38 0 0 0
M  V30 BEGIN ATOM
M  V30 1 O 7.115 4.597 0.0 0
M  V30 2 C 6.0621 3.9999 0.0 0
M  V30 3 O 6.0621 2.9999 0.0 0
M  V30 4 N 5.1961 4.4999 0.0 0
M  V30 5 C 6.9282 2.4999 0.0 0
M  V30 6 C 5.1961 5.4999 0.0 0 CFG=2
M  V30 7 C 4.3301 3.9999 0.0 0
M  V30 8 N 6.9282 1.4999 0.0 0 CHG=1
M  V30 9 C 6.0621 6.0 0.0 0 CFG=2
M  V30 10 C 4.3301 5.9999 0.0 0
M  V30 11 C 3.4641 4.5 0.0 0
M  V30 12 C 7.7942 0.9999 0.0 0
M  V30 13 C 6.0621 0.9999 0.0 0
M  V30 14 C 6.9282 5.4999 0.0 0
M  V30 15 C 6.0621 6.9999 0.0 0
M  V30 16 C 3.4641 5.5 0.0 0
M  V30 17 C 7.7942 0.0 0.0 0
M  V30 18 C 6.0621 0.0 0.0 0
M  V30 19 C 6.8068 4.714 0.0 0
M  V30 20 C 7.7942 5.9999 0.0 0
M  V30 21 O 6.9282 7.4999 0.0 0
M  V30 22 O 5.1961 7.5 0.0 0
M  V30 23 C 8.6602 -0.5 0.0 0
M  V30 24 C 6.9282 -0.5 0.0 0
M  V30 25 C 7.7942 3.9999 0.0 0
M  V30 26 C 8.6602 5.4999 0.0 0
M  V30 27 C 5.1961 8.5 0.0 0
M  V30 28 O 9.5262 0.0 0.0 0
M  V30 29 N 8.6602 -1.5 0.0 0
M  V30 30 C 8.6602 4.4999 0.0 0
M  V30 31 C 7.7942 -2.0 0.0 0 CFG=1
M  V30 32 C 7.7942 -3.0 0.0 0
M  V30 33 C 6.9282 -1.5 0.0 0
M  V30 34 O 6.9282 -3.5 0.0 0
M  V30 35 O 8.6602 -3.5 0.0 0 CHG=-1
M  V30 36 O 6.0621 -2.0 0.0 0
M  V30 END ATOM
M  V30 BEGIN BOND
M  V30 1 2 1 2
M  V30 2 1 2 3
M  V30 3 1 2 4
M  V30 4 1 3 5
M  V30 5 1 6 4 CFG=1
M  V30 6 1 4 7
M  V30 7 1 5 8
M  V30 8 1 9 6
M  V30 9 1 6 10
M  V30 10 1 7 11
M  V30 11 2 8 12
M  V30 12 1 8 13
M  V30 13 1 9 14 CFG=1
M  V30 14 1 9 15
M  V30 15 1 10 16
M  V30 16 1 12 17
M  V30 17 2 13 18
M  V30 18 2 14 19
M  V30 19 1 14 20
M  V30 20 2 15 21
M  V30 21 1 15 22
M  V30 22 1 17 23
M  V30 23 2 17 24
M  V30 24 1 19 25
M  V30 25 2 20 26
M  V30 26 1 22 27
M  V30 27 2 23 28
M  V30 28 1 23 29
M  V30 29 2 25 30
M  V30 30 1 31 29 CFG=1
M  V30 31 1 31 32
M  V30 32 1 31 33
M  V30 33 2 32 34
M  V30 34 1 32 35
M  V30 35 1 33 36
M  V30 36 1 11 16
M  V30 37 1 18 24
M  V30 38 1 26 30
M  V30 END BOND
M  V30 BEGIN COLLECTION
M  V30 MDLV30/STERAC1 ATOMS=(3 6 9 31)
M  V30 END COLLECTION
M  V30 END CTAB
M  END
>  <Molecule Name>


>  <status>
-

>  <cas>
1996626-29-9

>  <name>
SERDEXMETHYLPHENIDATE

>  <ID>
1999

>  <Smiles>
COC([C@H]([C@H](CCCC1)N1C(OC[n+]1cc(C(N[C@H](CO)C([O-])=O)=O)ccc1)=O)c1ccccc1)=O

$$$$

Actelion Java MolfileCreator 2.0

  0  0  0  0  0  0              0 V3000
M  V30 BEGIN CTAB
M  V30 COUNTS 33 37 0 0 0
M  V30 BEGIN ATOM
M  V30 1 O 3.1515 -2.1009 0.0 0
M  V30 2 C 3.8206 -1.3577 0.0 0
M  V30 3 N 3.5116 -0.4067 0.0 0
M  V30 4 C 4.7987 -1.5657 0.0 0
M  V30 5 C 4.1807 0.3364 0.0 0
M  V30 6 C 2.598 0.0 0.0 0 CFG=2
M  V30 7 C 5.4679 -0.8225 0.0 0
M  V30 8 N 5.1588 0.1284 0.0 0
M  V30 9 C 3.6807 1.2024 0.0 0
M  V30 10 C 1.732 -0.5 0.0 0
M  V30 11 C 2.7026 0.9945 0.0 0
M  V30 12 O 1.732 -1.5 0.0 0
M  V30 13 N 0.866 0.0 0.0 0
M  V30 14 C 0.0 -0.5 0.0 0
M  V30 15 C -0.866 0.0 0.0 0
M  V30 16 C 0.0 -1.4999 0.0 0
M  V30 17 C -1.732 -0.4999 0.0 0
M  V30 18 C -0.866 -1.9999 0.0 0
M  V30 19 C -1.732 -1.4999 0.0 0
M  V30 20 C -2.598 -1.9999 0.0 0
M  V30 21 C -2.598 -2.9999 0.0 0 CFG=1
M  V30 22 N -3.407 -3.5877 0.0 0
M  V30 23 C -1.789 -3.5877 0.0 0
M  V30 24 C -3.098 -4.5388 0.0 0 CFG=2
M  V30 25 C -2.098 -4.5388 0.0 0
M  V30 26 C -3.6858 -5.3478 0.0 0 CFG=2
M  V30 27 O -4.6803 -5.2433 0.0 0
M  V30 28 C -3.2791 -6.2614 0.0 0
M  V30 29 C -3.8669 -7.0704 0.0 0
M  V30 30 C -2.2846 -6.3659 0.0 0
M  V30 31 C -3.4601 -7.9839 0.0 0
M  V30 32 C -1.8778 -7.2794 0.0 0
M  V30 33 C -2.4656 -8.0884 0.0 0
M  V30 END ATOM
M  V30 BEGIN BOND
M  V30 1 2 1 2
M  V30 2 1 2 3
M  V30 3 1 2 4
M  V30 4 1 3 5
M  V30 5 1 6 3
M  V30 6 2 4 7
M  V30 7 2 5 8
M  V30 8 1 5 9
M  V30 9 1 6 10 CFG=3
M  V30 10 1 6 11
M  V30 11 2 10 12
M  V30 12 1 10 13
M  V30 13 1 13 14
M  V30 14 2 14 15
M  V30 15 1 14 16
M  V30 16 1 15 17
M  V30 17 2 16 18
M  V30 18 2 17 19
M  V30 19 1 19 20
M  V30 20 1 21 20 CFG=3
M  V30 21 1 21 22
M  V30 22 1 21 23
M  V30 23 1 24 22 CFG=3
M  V30 24 1 23 25
M  V30 25 1 26 24
M  V30 26 1 26 27 CFG=1
M  V30 27 1 26 28
M  V30 28 2 28 29
M  V30 29 1 28 30
M  V30 30 1 29 31
M  V30 31 2 30 32
M  V30 32 2 31 33
M  V30 33 1 7 8
M  V30 34 1 9 11
M  V30 35 1 18 19
M  V30 36 1 24 25
M  V30 37 1 32 33
M  V30 END BOND
M  V30 BEGIN COLLECTION
M  V30 MDLV30/STERAC1 ATOMS=(4 6 21 24 26)
M  V30 END COLLECTION
M  V30 END CTAB
M  END
>  <Molecule Name>


>  <status>
-

>  <cas>
1190389-15-1

>  <name>
VIBEGRON

>  <ID>
2000

>  <Smiles>
O[C@@H]([C@@H]1N[C@H](Cc(cc2)ccc2NC([C@H](CCC2=NC=C3)N2C3=O)=O)CC1)c1ccccc1

$$$$

Actelion Java MolfileCreator 2.0

  0  0  0  0  0  0              0 V3000
M  V30 BEGIN CTAB
M  V30 COUNTS 42 47 0 0 0
M  V30 BEGIN ATOM
M  V30 1 F 1.732 1.4999 0.0 0
M  V30 2 C 2.598 1.0 0.0 0
M  V30 3 C 2.598 0.0 0.0 0
M  V30 4 C 3.4641 1.4999 0.0 0
M  V30 5 O 1.732 -0.5 0.0 0
M  V30 6 C 3.4641 -0.5 0.0 0
M  V30 7 C 4.3301 1.0 0.0 0
M  V30 8 C 0.866 0.0 0.0 0
M  V30 9 C 4.3301 0.0 0.0 0
M  V30 10 C 5.1961 1.5 0.0 0
M  V30 11 C 0.866 1.0 0.0 0
M  V30 12 C 0.0 -0.5 0.0 0
M  V30 13 N 6.1096 1.0932 0.0 0
M  V30 14 C 5.3006 2.4945 0.0 0
M  V30 15 N 6.7788 1.8364 0.0 0
M  V30 16 C 4.6315 3.2376 0.0 0
M  V30 17 C 6.2788 2.7024 0.0 0
M  V30 18 C 7.7733 1.7318 0.0 0 CFG=2
M  V30 19 N 4.9405 4.1887 0.0 0
M  V30 20 N 3.6534 3.0297 0.0 0
M  V30 21 N 6.5878 3.6534 0.0 0
M  V30 22 C 8.18 0.8183 0.0 0
M  V30 23 C 8.3611 2.5408 0.0 0
M  V30 24 C 5.9187 4.3966 0.0 0
M  V30 25 O 7.5923 0.0093 0.0 0
M  V30 26 C 9.1746 0.7138 0.0 0
M  V30 27 C 7.999 -0.9042 0.0 0
M  V30 28 C 9.5813 -0.1997 0.0 0
M  V30 29 C 9.7623 1.5228 0.0 0
M  V30 30 C 8.9935 -1.0087 0.0 0
M  V30 31 C 7.4112 -1.7132 0.0 0
M  V30 32 O 10.5758 -0.3042 0.0 0
M  V30 33 C 10.7569 1.4182 0.0 0
M  V30 34 C 9.3556 2.4363 0.0 0
M  V30 35 C 9.4002 -1.9223 0.0 0
M  V30 36 C 7.8179 -2.6267 0.0 0
M  V30 37 C 11.3447 2.2273 0.0 0
M  V30 38 C 9.9434 3.2453 0.0 0
M  V30 39 C 8.8125 -2.7313 0.0 0
M  V30 40 F 12.3392 2.1227 0.0 0
M  V30 41 C 10.9379 3.1408 0.0 0
M  V30 42 F 9.2192 -3.6448 0.0 0
M  V30 END ATOM
M  V30 BEGIN BOND
M  V30 1 1 1 2
M  V30 2 2 2 3
M  V30 3 1 2 4
M  V30 4 1 3 5
M  V30 5 1 3 6
M  V30 6 2 4 7
M  V30 7 1 5 8
M  V30 8 2 6 9
M  V30 9 1 7 10
M  V30 10 1 8 11
M  V30 11 1 8 12
M  V30 12 2 10 13
M  V30 13 1 10 14
M  V30 14 1 13 15
M  V30 15 2 14 16
M  V30 16 1 14 17
M  V30 17 1 18 15 CFG=1
M  V30 18 1 16 19
M  V30 19 1 16 20
M  V30 20 2 17 21
M  V30 21 1 18 22
M  V30 22 1 18 23
M  V30 23 2 19 24
M  V30 24 1 22 25
M  V30 25 2 22 26
M  V30 26 1 25 27
M  V30 27 1 26 28
M  V30 28 1 26 29
M  V30 29 2 27 30
M  V30 30 1 27 31
M  V30 31 2 28 32
M  V30 32 2 29 33
M  V30 33 1 29 34
M  V30 34 1 30 35
M  V30 35 2 31 36
M  V30 36 1 33 37
M  V30 37 2 34 38
M  V30 38 2 35 39
M  V30 39 1 37 40
M  V30 40 2 37 41
M  V30 41 1 39 42
M  V30 42 1 7 9
M  V30 43 1 15 17
M  V30 44 1 21 24
M  V30 45 1 28 30
M  V30 46 1 36 39
M  V30 47 1 38 41
M  V30 END BOND
M  V30 BEGIN COLLECTION
M  V30 MDLV30/STERAC1 ATOMS=(1 18)
M  V30 END COLLECTION
M  V30 END CTAB
M  END
>  <Molecule Name>


>  <status>
DISCONTINUED

>  <cas>
1532533-67-7

>  <name>
UMBRALISIB

>  <ID>
2001

>  <Smiles>
CC(C)Oc(ccc(-c1nn(C(C)C(Oc(cc2)c3cc2F)=C(c2cc(F)ccc2)C3=O)c2ncnc(N)c12)c1)c1F

$$$$

Actelion Java MolfileCreator 2.0

  0  0  0  0  0  0              0 V3000
M  V30 BEGIN CTAB
M  V30 COUNTS 32 35 0 0 0
M  V30 BEGIN ATOM
M  V30 1 O 2.598 1.0 0.0 0
M  V30 2 C 2.598 0.0 0.0 0
M  V30 3 N 1.732 -0.5 0.0 0
M  V30 4 C 3.4641 -0.5 0.0 0
M  V30 5 C 0.866 0.0 0.0 0
M  V30 6 C 4.3301 0.0 0.0 0
M  V30 7 C 0.0 -0.5 0.0 0
M  V30 8 N 5.1961 -0.4999 0.0 0
M  V30 9 C 4.3301 0.9999 0.0 0
M  V30 10 C -0.866 0.0 0.0 0
M  V30 11 C 0.0 -1.4999 0.0 0
M  V30 12 C 6.0621 0.0 0.0 0
M  V30 13 C 5.1961 1.4999 0.0 0
M  V30 14 C -1.732 -0.4999 0.0 0
M  V30 15 C -0.866 -1.9999 0.0 0
M  V30 16 C 6.0621 1.0 0.0 0
M  V30 17 C -1.732 -1.4999 0.0 0
M  V30 18 C 6.9282 1.5 0.0 0
M  V30 19 C 7.7942 1.0 0.0 0
M  V30 20 C 6.9282 2.5 0.0 0
M  V30 21 C 8.6602 1.5 0.0 0
M  V30 22 C 7.7942 3.0 0.0 0
M  V30 23 C 8.6602 2.5 0.0 0
M  V30 24 O 9.5262 3.0 0.0 0
M  V30 25 C 9.5262 4.0 0.0 0
M  V30 26 C 10.3923 4.5 0.0 0
M  V30 27 N 10.3923 5.5 0.0 0
M  V30 28 C 11.2583 6.0 0.0 0
M  V30 29 C 9.5262 6.0 0.0 0
M  V30 30 C 11.2583 7.0 0.0 0
M  V30 31 C 9.5262 7.0 0.0 0
M  V30 32 O 10.3923 7.5 0.0 0
M  V30 END ATOM
M  V30 BEGIN BOND
M  V30 1 2 1 2
M  V30 2 1 2 3
M  V30 3 1 2 4
M  V30 4 1 3 5
M  V30 5 1 4 6
M  V30 6 1 5 7
M  V30 7 2 6 8
M  V30 8 1 6 9
M  V30 9 2 7 10
M  V30 10 1 7 11
M  V30 11 1 8 12
M  V30 12 2 9 13
M  V30 13 1 10 14
M  V30 14 2 11 15
M  V30 15 2 12 16
M  V30 16 2 14 17
M  V30 17 1 16 18
M  V30 18 2 18 19
M  V30 19 1 18 20
M  V30 20 1 19 21
M  V30 21 2 20 22
M  V30 22 2 21 23
M  V30 23 1 23 24
M  V30 24 1 24 25
M  V30 25 1 25 26
M  V30 26 1 26 27
M  V30 27 1 27 28
M  V30 28 1 27 29
M  V30 29 1 28 30
M  V30 30 1 29 31
M  V30 31 1 30 32
M  V30 32 1 13 16
M  V30 33 1 15 17
M  V30 34 1 22 23
M  V30 35 1 31 32
M  V30 END BOND
M  V30 END CTAB
M  END
>  <Molecule Name>


>  <status>
-

>  <cas>
897016-82-9

>  <name>
TIRBANIBULIN

>  <ID>
2002

>  <Smiles>
O=C(Cc(cc1)ncc1-c(cc1)ccc1OCCN1CCOCC1)NCc1ccccc1

$$$$

Actelion Java MolfileCreator 2.0

  0  0  0  0  0  0              0 V3000
M  V30 BEGIN CTAB
M  V30 COUNTS 27 31 0 0 0
M  V30 BEGIN ATOM
M  V30 1 O 2.8867 -3.8333 0.0 0
M  V30 2 C 2.8867 -2.8333 0.0 0
M  V30 3 C 3.7527 -2.3333 0.0 0
M  V30 4 C 2.0207 -2.3333 0.0 0
M  V30 5 C 3.7527 -1.3333 0.0 0 CFG=1
M  V30 6 C 2.0761 -1.3013 0.0 0
M  V30 7 C 4.6188 -0.8333 0.0 0
M  V30 8 C 2.8867 -0.8333 0.0 0 CFG=1
M  V30 9 C 2.598 -1.9999 0.0 0
M  V30 10 C 5.4848 -1.3333 0.0 0
M  V30 11 C 4.6188 0.1666 0.0 0
M  V30 12 O 1.9943 -0.2682 0.0 0
M  V30 13 C 2.8867 0.1666 0.0 0 CFG=2
M  V30 14 C 1.6598 -1.5416 0.0 0
M  V30 15 O 5.4848 -2.3333 0.0 0
M  V30 16 C 6.3508 -0.8333 0.0 0
M  V30 17 C 5.4848 0.6666 0.0 0
M  V30 18 C 3.7527 0.6666 0.0 0
M  V30 19 N 1.6758 -0.5496 0.0 0
M  V30 20 C 7.2168 -1.3333 0.0 0
M  V30 21 C 6.3508 0.1666 0.0 0
M  V30 22 C 0.866 0.0 0.0 0
M  V30 23 O 7.2168 -2.3333 0.0 0
M  V30 24 N 8.0829 -0.8333 0.0 0
M  V30 25 C 0.0 -0.5 0.0 0
M  V30 26 C -1.0 -0.4999 0.0 0
M  V30 27 C -0.5 -1.366 0.0 0
M  V30 END ATOM
M  V30 BEGIN BOND
M  V30 1 2 1 2
M  V30 2 1 2 3
M  V30 3 1 2 4
M  V30 4 1 5 3
M  V30 5 1 4 6
M  V30 6 1 5 7
M  V30 7 1 8 5
M  V30 8 1 5 9 CFG=1
M  V30 9 2 7 10
M  V30 10 1 7 11
M  V30 11 1 8 12 CFG=1
M  V30 12 1 13 8
M  V30 13 1 9 14
M  V30 14 1 10 15
M  V30 15 1 10 16
M  V30 16 2 11 17
M  V30 17 1 11 18
M  V30 18 1 13 19 CFG=1
M  V30 19 1 16 20
M  V30 20 2 16 21
M  V30 21 1 19 22
M  V30 22 2 20 23
M  V30 23 1 20 24
M  V30 24 1 22 25
M  V30 25 1 25 26
M  V30 26 1 25 27
M  V30 27 1 6 8
M  V30 28 1 13 18
M  V30 29 1 14 19
M  V30 30 1 17 21
M  V30 31 1 26 27
M  V30 END BOND
M  V30 BEGIN COLLECTION
M  V30 MDLV30/STERAC1 ATOMS=(3 5 8 13)
M  V30 END COLLECTION
M  V30 END CTAB
M  END
>  <Molecule Name>


>  <status>
-

>  <cas>
852626-89-2

>  <name>
SAMIDORPHAN

>  <ID>
2003

>  <Smiles>
NC(c1ccc(C[C@@H]2N(CC3CC3)CC[C@@]3(CC(CC4)=O)[C@@]24O)c3c1O)=O

$$$$

Actelion Java MolfileCreator 2.0

  0  0  0  0  0  0              0 V3000
M  V30 BEGIN CTAB
M  V30 COUNTS 29 32 0 0 0
M  V30 BEGIN ATOM
M  V30 1 O -2.9418 -10.8155 0.0 0
M  V30 2 C -2.4776 -9.387 0.0 0
M  V30 3 C -3.4826 -8.2708 0.0 0
M  V30 4 C -1.0085 -9.0747 0.0 0
M  V30 5 C -3.0185 -6.8423 0.0 0
M  V30 6 C -0.5443 -7.6463 0.0 0
M  V30 7 C -1.5494 -6.5301 0.0 0 CFG=1
M  V30 8 C -4.0235 -5.7262 0.0 0
M  V30 9 C -1.0852 -5.1016 0.0 0 CFG=1
M  V30 10 C -0.0802 -6.2178 0.0 0
M  V30 11 C -3.5594 -4.2977 0.0 0
M  V30 12 C -2.0902 -3.9854 0.0 0 CFG=2
M  V30 13 C 0.3838 -4.7893 0.0 0
M  V30 14 C -1.6261 -2.557 0.0 0 CFG=2
M  V30 15 C 0.7901 -3.4116 0.0 0
M  V30 16 C -0.1569 -2.2447 0.0 0 CFG=1
M  V30 17 C -2.3771 -1.2562 0.0 0
M  V30 18 C 0.0 -0.7509 0.0 0 CFG=2
M  V30 19 C 1.4055 -1.9567 0.0 0
M  V30 20 C -1.3721 -0.14 0.0 0
M  V30 21 O 1.3007 0.0 0.0 0
M  V30 22 C 1.2285 -1.4002 0.0 0
M  V30 23 C 1.3007 1.5019 0.0 0
M  V30 24 O 1.2968 -2.9673 0.0 0
M  V30 25 C 2.5979 -0.8871 0.0 0
M  V30 26 O 0.0 2.2529 0.0 0
M  V30 27 C 2.6014 2.2529 0.0 0
M  V30 28 O 3.8575 -1.7051 0.0 0
M  V30 29 C 2.6014 3.7549 0.0 0
M  V30 END ATOM
M  V30 BEGIN BOND
M  V30 1 2 1 2
M  V30 2 1 2 3
M  V30 3 1 2 4
M  V30 4 2 3 5
M  V30 5 1 4 6
M  V30 6 1 7 5
M  V30 7 1 5 8
M  V30 8 1 9 7
M  V30 9 1 7 10 CFG=1
M  V30 10 1 8 11
M  V30 11 1 12 9
M  V30 12 1 9 13 CFG=1
M  V30 13 1 14 12
M  V30 14 1 13 15
M  V30 15 1 16 14
M  V30 16 1 14 17 CFG=1
M  V30 17 1 18 16
M  V30 18 1 16 19 CFG=1
M  V30 19 1 17 20
M  V30 20 1 18 21
M  V30 21 1 18 22 CFG=1
M  V30 22 1 21 23
M  V30 23 2 22 24
M  V30 24 1 22 25
M  V30 25 2 23 26
M  V30 26 1 23 27
M  V30 27 1 25 28
M  V30 28 1 27 29
M  V30 29 1 6 7
M  V30 30 1 12 11 CFG=3
M  V30 31 1 15 16
M  V30 32 1 18 20
M  V30 END BOND
M  V30 BEGIN COLLECTION
M  V30 MDLV30/STERAC1 ATOMS=(6 7 9 12 14 16 18)
M  V30 END COLLECTION
M  V30 END CTAB
M  END
>  <Molecule Name>


>  <status>
-

>  <cas>
19608-29-8

>  <name>
CLASCOTERONE

>  <ID>
2004

>  <Smiles>
CCC(O[C@@](CC1)([C@](C)(CC2)[C@H]1[C@@H](CC1)[C@@H]2[C@](C)(CC2)C1=CC2=O)C(CO)=O)=O

$$$$

Actelion Java MolfileCreator 2.0

  0  0  0  0  0  0              0 V3000
M  V30 BEGIN CTAB
M  V30 COUNTS 19 20 0 0 0
M  V30 BEGIN ATOM
M  V30 1 S 6.4952 1.5 0.0 0
M  V30 2 O 7.9951 1.4999 0.0 0
M  V30 3 O 7.2451 2.799 0.0 0
M  V30 4 C 5.1961 2.25 0.0 0
M  V30 5 C 6.4952 0.0 0.0 0
M  V30 6 C 3.8971 1.5 0.0 0 CFG=1
M  V30 7 C 5.1961 -0.75 0.0 0
M  V30 8 N 3.8971 0.0 0.0 0
M  V30 9 C 2.598 2.25 0.0 0
M  V30 10 N 2.598 -0.75 0.0 0
M  V30 11 C 1.299 0.0 0.0 0
M  V30 12 C 0.0 -0.75 0.0 0
M  V30 13 O -1.3703 -0.1398 0.0 0
M  V30 14 C -0.1567 -2.2417 0.0 0
M  V30 15 C -2.374 -1.2546 0.0 0
M  V30 16 C -1.624 -2.5536 0.0 0
M  V30 17 N -3.8658 -1.0978 0.0 0 CHG=1
M  V30 18 O -4.4759 0.2724 0.0 0
M  V30 19 O -4.7474 -2.3113 0.0 0 CHG=-1
M  V30 END ATOM
M  V30 BEGIN BOND
M  V30 1 2 1 2
M  V30 2 2 1 3
M  V30 3 1 1 4
M  V30 4 1 1 5
M  V30 5 1 6 4
M  V30 6 1 5 7
M  V30 7 1 6 8
M  V30 8 1 6 9 CFG=1
M  V30 9 1 8 10
M  V30 10 2 10 11
M  V30 11 1 11 12
M  V30 12 1 12 13
M  V30 13 2 12 14
M  V30 14 1 13 15
M  V30 15 1 14 16
M  V30 16 1 15 17
M  V30 17 2 17 18
M  V30 18 1 17 19
M  V30 19 1 7 8
M  V30 20 2 15 16
M  V30 END BOND
M  V30 BEGIN COLLECTION
M  V30 MDLV30/STERAC1 ATOMS=(1 6)
M  V30 END COLLECTION
M  V30 END CTAB
M  END
>  <Molecule Name>


>  <status>
-

>  <cas>
23256-30-6

>  <name>
NIFURTIMOX

>  <ID>
2005

>  <Smiles>
CC(CS(CC1)(=O)=O)N1/N=C/c1ccc([N+]([O-])=O)o1

$$$$

Actelion Java MolfileCreator 2.0

  0  0  0  0  0  0              0 V3000
M  V30 BEGIN CTAB
M  V30 COUNTS 19 20 0 0 0
M  V30 BEGIN ATOM
M  V30 1 S 6.4952 1.5 0.0 0
M  V30 2 O 7.9951 1.4999 0.0 0
M  V30 3 O 7.2451 2.799 0.0 0
M  V30 4 C 5.1961 2.25 0.0 0
M  V30 5 C 6.4952 0.0 0.0 0
M  V30 6 C 3.8971 1.5 0.0 0 CFG=1
M  V30 7 C 5.1961 -0.75 0.0 0
M  V30 8 N 3.8971 0.0 0.0 0
M  V30 9 C 2.598 2.25 0.0 0
M  V30 10 N 2.598 -0.75 0.0 0
M  V30 11 C 1.299 0.0 0.0 0
M  V30 12 C 0.0 -0.75 0.0 0
M  V30 13 O -1.3703 -0.1398 0.0 0
M  V30 14 C -0.1567 -2.2417 0.0 0
M  V30 15 C -2.374 -1.2546 0.0 0
M  V30 16 C -1.624 -2.5536 0.0 0
M  V30 17 N -3.8658 -1.0978 0.0 0 CHG=1
M  V30 18 O -4.4759 0.2724 0.0 0
M  V30 19 O -4.7474 -2.3113 0.0 0 CHG=-1
M  V30 END ATOM
M  V30 BEGIN BOND
M  V30 1 2 1 2
M  V30 2 2 1 3
M  V30 3 1 1 4
M  V30 4 1 1 5
M  V30 5 1 6 4
M  V30 6 1 5 7
M  V30 7 1 6 8
M  V30 8 1 6 9 CFG=1
M  V30 9 1 8 10
M  V30 10 2 10 11
M  V30 11 1 11 12
M  V30 12 1 12 13
M  V30 13 2 12 14
M  V30 14 1 13 15
M  V30 15 1 14 16
M  V30 16 1 15 17
M  V30 17 2 17 18
M  V30 18 1 17 19
M  V30 19 1 7 8
M  V30 20 2 15 16
M  V30 END BOND
M  V30 BEGIN COLLECTION
M  V30 MDLV30/STERAC1 ATOMS=(1 6)
M  V30 END COLLECTION
M  V30 END CTAB
M  END
>  <Molecule Name>


>  <status>
-

>  <cas>
23256-30-6

>  <name>
NIFURTIMOX

>  <ID>
2006

>  <Smiles>
CC(CS(CC1)(=O)=O)N1/N=C/c1ccc([N+]([O-])=O)o1

$$$$

Actelion Java MolfileCreator 2.0

  0  0  0  0  0  0              0 V3000
M  V30 BEGIN CTAB
M  V30 COUNTS 31 33 0 0 0
M  V30 BEGIN ATOM
M  V30 1 Cl 3.4641 1.4999 0.0 0
M  V30 2 C 4.3301 1.0 0.0 0
M  V30 3 C 4.3301 0.0 0.0 0
M  V30 4 C 5.1961 1.5 0.0 0
M  V30 5 O 3.4641 -0.5 0.0 0
M  V30 6 C 5.1961 -0.4999 0.0 0
M  V30 7 C 6.0621 1.0 0.0 0
M  V30 8 C 2.598 0.0 0.0 0
M  V30 9 C 6.0621 0.0 0.0 0
M  V30 10 C 6.9282 1.5 0.0 0
M  V30 11 C 1.732 -0.5 0.0 0 CFG=1
M  V30 12 C 6.9282 2.5 0.0 0
M  V30 13 O 1.732 -1.5 0.0 0
M  V30 14 C 0.866 0.0 0.0 0
M  V30 15 S 7.7372 3.0877 0.0 0
M  V30 16 C 6.1191 3.0877 0.0 0
M  V30 17 O 0.0 -0.5 0.0 0
M  V30 18 C 7.4282 4.0388 0.0 0
M  V30 19 O 5.1681 2.7787 0.0 0
M  V30 20 N 6.4282 4.0388 0.0 0
M  V30 21 N 8.0159 4.8478 0.0 0
M  V30 22 C 5.8404 4.8478 0.0 0
M  V30 23 C 9.0105 4.7433 0.0 0
M  V30 24 C 6.2471 5.7614 0.0 0
M  V30 25 C 4.8458 4.7433 0.0 0
M  V30 26 C 9.5982 5.5523 0.0 0
M  V30 27 C 5.6593 6.5704 0.0 0
M  V30 28 C 7.2416 5.8659 0.0 0
M  V30 29 C 4.2581 5.5523 0.0 0
M  V30 30 C 10.5928 5.4478 0.0 0
M  V30 31 C 4.6648 6.4658 0.0 0
M  V30 END ATOM
M  V30 BEGIN BOND
M  V30 1 1 1 2
M  V30 2 2 2 3
M  V30 3 1 2 4
M  V30 4 1 3 5
M  V30 5 1 3 6
M  V30 6 2 4 7
M  V30 7 1 5 8
M  V30 8 2 6 9
M  V30 9 1 7 10
M  V30 10 1 11 8
M  V30 11 2 10 12
M  V30 12 1 11 13 CFG=1
M  V30 13 1 11 14
M  V30 14 1 12 15
M  V30 15 1 12 16
M  V30 16 1 14 17
M  V30 17 1 15 18
M  V30 18 2 16 19
M  V30 19 1 16 20
M  V30 20 2 18 21
M  V30 21 1 20 22
M  V30 22 1 21 23
M  V30 23 2 22 24
M  V30 24 1 22 25
M  V30 25 1 23 26
M  V30 26 1 24 27
M  V30 27 1 24 28
M  V30 28 2 25 29
M  V30 29 1 26 30
M  V30 30 2 27 31
M  V30 31 1 7 9
M  V30 32 1 18 20
M  V30 33 1 29 31
M  V30 END BOND
M  V30 BEGIN COLLECTION
M  V30 MDLV30/STERAC1 ATOMS=(1 11)
M  V30 END COLLECTION
M  V30 END CTAB
M  END
>  <Molecule Name>


>  <status>
-

>  <cas>
854107-55-4

>  <name>
PONESIMOD

>  <ID>
2007

>  <Smiles>
CCC/N=C(/N(C1=O)c2c(C)cccc2)\S/C1=C/c(cc1)cc(Cl)c1OCC(CO)O

$$$$

Actelion Java MolfileCreator 2.0

  0  0  0  0  0  0              0 V3000
M  V30 BEGIN CTAB
M  V30 COUNTS 30 35 0 0 0
M  V30 BEGIN ATOM
M  V30 1 O 0.866 0.0 0.0 0
M  V30 2 C 0.0 -0.5 0.0 0
M  V30 3 N -0.866 0.0 0.0 0
M  V30 4 C 0.0 -1.4999 0.0 0
M  V30 5 C -1.732 -0.4999 0.0 0
M  V30 6 C -0.866 1.0 0.0 0
M  V30 7 C -0.866 -1.9999 0.0 0
M  V30 8 N -1.732 -1.4999 0.0 0
M  V30 9 C -2.598 0.0 0.0 0
M  V30 10 C -1.732 1.5 0.0 0
M  V30 11 C -0.866 -2.9999 0.0 0
M  V30 12 C -2.598 1.0 0.0 0
M  V30 13 N -1.732 2.5 0.0 0
M  V30 14 N 0.0 -3.4999 0.0 0
M  V30 15 C -1.732 -3.4999 0.0 0
M  V30 16 C -0.866 3.0 0.0 0
M  V30 17 C -2.598 3.0 0.0 0
M  V30 18 N 0.0 -4.4999 0.0 0
M  V30 19 C -1.732 -4.4999 0.0 0
M  V30 20 C -0.866 4.0 0.0 0
M  V30 21 C -2.598 4.0 0.0 0
M  V30 22 C -0.866 -4.9999 0.0 0
M  V30 23 C 0.7431 -5.1691 0.0 0
M  V30 24 C -2.598 -4.9999 0.0 0
M  V30 25 N -1.732 4.5 0.0 0
M  V30 26 C 0.1339 3.9999 0.0 0
M  V30 27 C -0.366 4.866 0.0 0
M  V30 28 N -0.6581 -5.9781 0.0 0
M  V30 29 C 0.3364 -6.0826 0.0 0
M  V30 30 C 0.8364 -6.9487 0.0 0
M  V30 END ATOM
M  V30 BEGIN BOND
M  V30 1 2 1 2
M  V30 2 1 2 3
M  V30 3 1 2 4
M  V30 4 1 3 5
M  V30 5 1 3 6
M  V30 6 2 4 7
M  V30 7 2 5 8
M  V30 8 1 5 9
M  V30 9 2 6 10
M  V30 10 1 7 11
M  V30 11 2 9 12
M  V30 12 1 10 13
M  V30 13 2 11 14
M  V30 14 1 11 15
M  V30 15 1 13 16
M  V30 16 1 13 17
M  V30 17 1 14 18
M  V30 18 2 15 19
M  V30 19 1 16 20
M  V30 20 1 17 21
M  V30 21 1 18 22
M  V30 22 1 18 23
M  V30 23 1 19 24
M  V30 24 1 20 25
M  V30 25 1 20 26
M  V30 26 1 20 27
M  V30 27 2 22 28
M  V30 28 2 23 29
M  V30 29 1 29 30
M  V30 30 1 7 8
M  V30 31 1 10 12
M  V30 32 1 19 22
M  V30 33 1 21 25
M  V30 34 1 26 27
M  V30 35 1 28 29
M  V30 END BOND
M  V30 END CTAB
M  END
>  <Molecule Name>


>  <status>
-

>  <cas>
1825352-65-5

>  <name>
RISDIPLAM

>  <ID>
2008

>  <Smiles>
Cc(nc1c(C)c2)cn1nc2C(N=C(C=C1)N2C=C1N1CC3(CC3)NCC1)=CC2=O

$$$$

Actelion Java MolfileCreator 2.0

  0  0  0  0  0  0              0 V3000
M  V30 BEGIN CTAB
M  V30 COUNTS 86 86 0 0 0
M  V30 BEGIN ATOM
M  V30 1 O 10.1572 -3.4481 0.0 0
M  V30 2 C 11.0877 -2.2649 0.0 0
M  V30 3 N 9.9983 -1.2261 0.0 0
M  V30 4 C 12.354 -3.0787 0.0 0 CFG=1
M  V30 5 C 9.1251 0.0 0.0 0 CFG=2
M  V30 6 C 8.8607 -2.2118 0.0 0
M  V30 7 N 13.7515 -3.6381 0.0 0
M  V30 8 C 11.6643 -4.4166 0.0 0
M  V30 9 C 8.4998 1.3692 0.0 0
M  V30 10 C 7.8215 -0.7526 0.0 0 CFG=2
M  V30 11 C 15.2295 -3.923 0.0 0
M  V30 12 C 13.3274 -5.0824 0.0 0
M  V30 13 C 10.1607 -4.4882 0.0 0
M  V30 14 C 12.4781 -5.6829 0.0 0
M  V30 15 O 7.165 0.8963 0.0 0
M  V30 16 N 8.145 2.832 0.0 0
M  V30 17 O 7.8215 -2.2579 0.0 0
M  V30 18 C 6.5179 0.0 0.0 0 CFG=1
M  V30 19 O 15.1266 -5.3336 0.0 0
M  V30 20 C 16.7348 -3.923 0.0 0 CFG=1
M  V30 21 C 8.0733 4.3356 0.0 0 CFG=2
M  V30 22 C 5.2143 -0.7526 0.0 0
M  V30 23 C 6.5179 1.5052 0.0 0
M  V30 24 N 18.2128 -3.6381 0.0 0
M  V30 25 C 16.8779 -5.4214 0.0 0
M  V30 26 C 8.2876 5.8255 0.0 0
M  V30 27 C 6.5698 4.4072 0.0 0
M  V30 28 C 5.2143 -2.2579 0.0 0
M  V30 29 C 19.6103 -3.0787 0.0 0
M  V30 30 C 18.6369 -5.0824 0.0 0
M  V30 31 C 15.6517 -6.2946 0.0 0
M  V30 32 O 6.8247 6.1804 0.0 0
M  V30 33 N 8.7799 7.248 0.0 0
M  V30 34 C 5.756 3.1409 0.0 0
M  V30 35 C 6.5179 -3.0105 0.0 0
M  V30 36 O 20.2863 -4.321 0.0 0
M  V30 37 C 20.8766 -2.2649 0.0 0 CFG=1
M  V30 38 C 14.2825 -5.6693 0.0 0
M  V30 39 C 15.7948 -7.793 0.0 0
M  V30 40 C 9.5325 8.5516 0.0 0
M  V30 41 C 7.4106 7.8733 0.0 0
M  V30 42 C 6.5179 -4.5158 0.0 0
M  V30 43 N 21.966 -1.2261 0.0 0
M  V30 44 C 21.8071 -3.4481 0.0 0
M  V30 45 C 10.5183 9.6892 0.0 0
M  V30 46 C 7.8215 -5.2684 0.0 0
M  V30 47 C 22.8392 0.0 0.0 0
M  V30 48 C 23.1036 -2.2118 0.0 0
M  V30 49 C 21.2476 -4.8455 0.0 0
M  V30 50 O 9.4795 10.7786 0.0 0
M  V30 51 N 11.7015 10.6197 0.0 0
M  V30 52 O 24.1428 -0.7526 0.0 0
M  V30 53 C 23.4645 1.3692 0.0 0 CFG=2
M  V30 54 C 19.7577 -5.0597 0.0 0
M  V30 55 C 22.1781 -6.0287 0.0 0
M  V30 56 C 13.0394 11.3095 0.0 0 CFG=2
M  V30 57 C 10.8877 11.886 0.0 0
M  V30 58 N 23.8193 2.832 0.0 0
M  V30 59 C 24.8869 0.8769 0.0 0
M  V30 60 C 14.4837 11.7335 0.0 0
M  V30 61 C 12.48 12.7069 0.0 0
M  V30 62 C 23.891 4.3356 0.0 0
M  V30 63 O 14.1851 13.116 0.0 0
M  V30 64 N 15.9821 11.8766 0.0 0
M  V30 65 C 13.4104 13.8901 0.0 0
M  V30 66 O 25.3945 4.4072 0.0 0
M  V30 67 C 23.6767 5.8255 0.0 0 CFG=1
M  V30 68 C 17.4806 11.7335 0.0 0 CFG=2
M  V30 69 C 14.9004 13.6759 0.0 0
M  V30 70 C 12.851 15.2876 0.0 0
M  V30 71 N 23.1844 7.248 0.0 0
M  V30 72 C 25.1396 6.1804 0.0 0
M  V30 73 C 18.9249 11.3095 0.0 0
M  V30 74 C 17.7655 13.2116 0.0 0
M  V30 75 C 22.4318 8.5516 0.0 0
M  V30 76 O 19.4843 12.7069 0.0 0
M  V30 77 N 20.2628 10.6197 0.0 0
M  V30 78 C 19.188 13.7039 0.0 0
M  V30 79 C 16.6279 14.1973 0.0 0
M  V30 80 O 23.5652 9.3975 0.0 0
M  V30 81 C 21.446 9.6892 0.0 0 CFG=1
M  V30 82 C 21.0766 11.886 0.0 0
M  V30 83 C 22.4848 10.7786 0.0 0
M  V30 84 C 23.9476 10.4237 0.0 0
M  V30 85 C 24.3717 8.9795 0.0 0
M  V30 86 C 24.9864 11.5132 0.0 0
M  V30 END ATOM
M  V30 BEGIN BOND
M  V30 1 2 1 2
M  V30 2 1 2 3
M  V30 3 1 4 2
M  V30 4 1 5 3 CFG=1
M  V30 5 1 3 6
M  V30 6 1 4 7
M  V30 7 1 4 8 CFG=1
M  V30 8 1 5 9
M  V30 9 1 10 5
M  V30 10 1 7 11
M  V30 11 1 7 12
M  V30 12 1 8 13
M  V30 13 1 8 14
M  V30 14 2 9 15
M  V30 15 1 9 16
M  V30 16 1 10 17 CFG=3
M  V30 17 1 18 10
M  V30 18 2 11 19
M  V30 19 1 20 11
M  V30 20 1 21 16
M  V30 21 1 18 22
M  V30 22 1 18 23 CFG=1
M  V30 23 1 20 24
M  V30 24 1 20 25 CFG=1
M  V30 25 1 21 26
M  V30 26 1 21 27 CFG=1
M  V30 27 1 22 28
M  V30 28 1 24 29
M  V30 29 1 24 30
M  V30 30 1 25 31
M  V30 31 2 26 32
M  V30 32 1 26 33
M  V30 33 1 27 34
M  V30 34 2 28 35
M  V30 35 2 29 36
M  V30 36 1 37 29
M  V30 37 1 31 38
M  V30 38 1 31 39
M  V30 39 1 33 40
M  V30 40 1 33 41
M  V30 41 1 35 42
M  V30 42 1 37 43
M  V30 43 1 37 44 CFG=1
M  V30 44 1 40 45
M  V30 45 2 42 46
M  V30 46 1 43 47
M  V30 47 1 43 48
M  V30 48 1 44 49
M  V30 49 2 45 50
M  V30 50 1 45 51
M  V30 51 2 47 52
M  V30 52 1 53 47
M  V30 53 1 49 54
M  V30 54 1 49 55
M  V30 55 1 56 51
M  V30 56 1 51 57
M  V30 57 1 53 58
M  V30 58 1 53 59 CFG=3
M  V30 59 1 56 60
M  V30 60 1 56 61 CFG=1
M  V30 61 1 58 62
M  V30 62 2 60 63
M  V30 63 1 60 64
M  V30 64 1 61 65
M  V30 65 2 62 66
M  V30 66 1 67 62
M  V30 67 1 68 64
M  V30 68 1 65 69
M  V30 69 1 65 70
M  V30 70 1 67 71
M  V30 71 1 67 72 CFG=1
M  V30 72 1 68 73
M  V30 73 1 68 74 CFG=1
M  V30 74 1 71 75
M  V30 75 2 73 76
M  V30 76 1 73 77
M  V30 77 1 74 78
M  V30 78 1 74 79
M  V30 79 2 75 80
M  V30 80 1 81 75
M  V30 81 1 77 82
M  V30 82 1 81 83 CFG=1
M  V30 83 1 83 84
M  V30 84 1 84 85
M  V30 85 1 84 86
M  V30 86 1 77 81
M  V30 END BOND
M  V30 BEGIN COLLECTION
M  V30 MDLV30/STERAC1 ATOMS=(12 4 5 10 18 20 21 37 53 56 67 68 81)
M  V30 END COLLECTION
M  V30 END CTAB
M  END
>  <Molecule Name>


>  <status>
-

>  <cas>
515814-01-4

>  <name>
VOCLOSPORIN

>  <ID>
2009

>  <Smiles>
CC[C@@H](C(N(C)CC(N(C)[C@@H](CC(C)C)C(N[C@@H](C(C)C)C(N(C)[C@@H](CC(C)C)C(N[C@@H](C)C(N[C@H](C)C(N(C)[C@@H](CC(C)C)C(N(C)[C@@H](CC(C)C)C(N(C)[C@@H](C(C)C)C(N(C)[C@H]1[C@@H]([C@H](C)C/C=C/C=C)O)=O)=O)=O)=O)=O)=O)=O)=O)=O)=O)NC1=O

$$$$

Actelion Java MolfileCreator 2.0

  0  0  0  0  0  0              0 V3000
M  V30 BEGIN CTAB
M  V30 COUNTS 39 43 0 0 0
M  V30 BEGIN ATOM
M  V30 1 F 0.6442 7.8478 0.0 0
M  V30 2 C 1.232 7.0388 0.0 0
M  V30 3 C 2.232 7.0388 0.0 0
M  V30 4 C 0.923 6.0877 0.0 0
M  V30 5 N 2.541 6.0877 0.0 0
M  V30 6 N 1.732 5.5 0.0 0
M  V30 7 C 1.732 4.4999 0.0 0
M  V30 8 N 2.598 3.9999 0.0 0
M  V30 9 C 0.866 3.9999 0.0 0
M  V30 10 C 2.598 2.9999 0.0 0
M  V30 11 C 0.866 3.0 0.0 0
M  V30 12 C 1.732 2.4999 0.0 0
M  V30 13 C 1.732 1.4999 0.0 0 CFG=1
M  V30 14 N 0.866 0.9999 0.0 0
M  V30 15 C 2.598 0.9999 0.0 0
M  V30 16 C 0.866 0.0 0.0 0
M  V30 17 O 1.732 -0.5 0.0 0
M  V30 18 C 0.0 -0.5 0.0 0 CFG=2
M  V30 19 O 0.866 -1.0 0.0 0
M  V30 20 C -0.866 0.0 0.0 0
M  V30 21 C 0.0 -1.4999 0.0 0
M  V30 22 C 0.866 -2.0 0.0 0
M  V30 23 C -1.732 -0.4999 0.0 0
M  V30 24 C -0.866 -1.9999 0.0 0
M  V30 25 C -1.732 -1.4999 0.0 0 CFG=2
M  V30 26 C -2.598 -1.9999 0.0 0
M  V30 27 N -3.4641 -1.4999 0.0 0
M  V30 28 N -2.598 -2.9999 0.0 0
M  V30 29 C -4.3301 -1.9999 0.0 0
M  V30 30 C -3.4641 -3.4999 0.0 0
M  V30 31 N -5.1961 -1.4999 0.0 0
M  V30 32 C -4.3301 -2.9999 0.0 0
M  V30 33 C -3.4641 -4.4999 0.0 0
M  V30 34 C -6.0621 -1.9999 0.0 0
M  V30 35 N -6.9757 -1.5932 0.0 0
M  V30 36 C -6.1667 -2.9945 0.0 0
M  V30 37 N -7.6448 -2.3364 0.0 0
M  V30 38 C -7.1448 -3.2024 0.0 0
M  V30 39 C -7.5515 -4.1159 0.0 0
M  V30 END ATOM
M  V30 BEGIN BOND
M  V30 1 1 1 2
M  V30 2 1 2 3
M  V30 3 2 2 4
M  V30 4 2 3 5
M  V30 5 1 4 6
M  V30 6 1 6 7
M  V30 7 2 7 8
M  V30 8 1 7 9
M  V30 9 1 8 10
M  V30 10 2 9 11
M  V30 11 2 10 12
M  V30 12 1 13 12
M  V30 13 1 13 14 CFG=3
M  V30 14 1 13 15
M  V30 15 1 14 16
M  V30 16 2 16 17
M  V30 17 1 18 16
M  V30 18 1 18 19 CFG=3
M  V30 19 1 18 20
M  V30 20 1 18 21
M  V30 21 1 19 22
M  V30 22 1 20 23
M  V30 23 1 21 24
M  V30 24 1 25 23
M  V30 25 1 25 26 CFG=3
M  V30 26 2 26 27
M  V30 27 1 26 28
M  V30 28 1 27 29
M  V30 29 2 28 30
M  V30 30 1 29 31
M  V30 31 2 29 32
M  V30 32 1 30 33
M  V30 33 1 31 34
M  V30 34 2 34 35
M  V30 35 1 34 36
M  V30 36 1 35 37
M  V30 37 2 36 38
M  V30 38 1 38 39
M  V30 39 1 5 6
M  V30 40 1 11 12
M  V30 41 1 24 25
M  V30 42 1 30 32
M  V30 43 1 37 38
M  V30 END BOND
M  V30 BEGIN COLLECTION
M  V30 MDLV30/STEABS ATOMS=(2 18 25)
M  V30 MDLV30/STERAC1 ATOMS=(1 13)
M  V30 END COLLECTION
M  V30 END CTAB
M  END
>  <Molecule Name>


>  <status>
-

>  <cas>
2097132-94-8

>  <name>
PRALSETINIB

>  <ID>
2010

>  <Smiles>
CC(c(cc1)cnc1-n1ncc(F)c1)NC([C@](CC1)(CC[C@@H]1c1nc(Nc2n[nH]c(C)c2)cc(C)n1)OC)=O

$$$$

Actelion Java MolfileCreator 2.0

  0  0  0  0  0  0              0 V3000
M  V30 BEGIN CTAB
M  V30 COUNTS 78 82 0 0 0
M  V30 BEGIN ATOM
M  V30 1 S 7.3032 1.9195 0.0 0
M  V30 2 S 7.4619 2.9069 0.0 0
M  V30 3 C 7.4168 0.926 0.0 0
M  V30 4 C 7.881 3.8148 0.0 0
M  V30 5 C 7.7942 0.0 0.0 0 CFG=2
M  V30 6 C 8.5296 4.5759 0.0 0 CFG=2
M  V30 7 N 6.9282 -0.5 0.0 0
M  V30 8 C 8.4074 -0.7898 0.0 0
M  V30 9 N 9.3595 5.1338 0.0 0
M  V30 10 C 7.8639 5.3221 0.0 0
M  V30 11 C 6.0621 0.0 0.0 0
M  V30 12 O 7.7084 -1.5049 0.0 0
M  V30 13 N 9.2111 -1.385 0.0 0
M  V30 14 C 10.3091 5.4472 0.0 0
M  V30 15 O 8.1772 6.2717 0.0 0
M  V30 16 N 6.8848 5.1186 0.0 0
M  V30 17 O 6.0621 0.9999 0.0 0
M  V30 18 C 5.1961 -0.5 0.0 0 CFG=1
M  V30 19 C 10.1455 -1.7412 0.0 0 CFG=1
M  V30 20 O 10.128 6.4306 0.0 0
M  V30 21 C 11.3081 5.4927 0.0 0 CFG=1
M  V30 22 N 5.1961 -1.4999 0.0 0
M  V30 23 C 4.3301 0.0 0.0 0
M  V30 24 C 11.1413 -1.8321 0.0 0
M  V30 25 C 9.9198 -2.7154 0.0 0
M  V30 26 N 12.2823 5.267 0.0 0
M  V30 27 C 11.399 6.4885 0.0 0
M  V30 28 C 4.3301 -1.9999 0.0 0
M  V30 29 C 3.4641 -0.5 0.0 0
M  V30 30 O 11.1868 -2.8311 0.0 0
M  V30 31 N 12.1248 -1.651 0.0 0
M  V30 32 C 13.1595 4.7868 0.0 0
M  V30 33 C 12.3069 6.9077 0.0 0
M  V30 34 O 3.4641 -1.4999 0.0 0
M  V30 35 C 4.3301 -2.9999 0.0 0
M  V30 36 C 2.598 0.0 0.0 0
M  V30 37 C 13.0229 -1.2113 0.0 0 CFG=2
M  V30 38 O 13.7546 5.5905 0.0 0
M  V30 39 C 13.8746 4.0878 0.0 0 CFG=1
M  V30 40 C 12.5015 7.8886 0.0 0
M  V30 41 C 13.1797 6.4196 0.0 0
M  V30 42 N 1.732 -0.5 0.0 0
M  V30 43 C 13.7691 -0.5455 0.0 0
M  V30 44 C 13.5809 -2.0412 0.0 0
M  V30 45 N 14.3746 3.2218 0.0 0
M  V30 46 C 14.6645 4.7011 0.0 0
M  V30 47 C 13.4945 8.0067 0.0 0
M  V30 48 C 11.9027 8.6895 0.0 0
M  V30 49 N 13.9137 7.0988 0.0 0
M  V30 50 C 0.866 0.0 0.0 0
M  V30 51 O 14.5302 -1.1941 0.0 0
M  V30 52 N 14.308 0.2967 0.0 0
M  V30 53 C 13.1411 -2.9393 0.0 0
M  V30 54 C 14.6224 2.253 0.0 0
M  V30 55 C 15.5905 4.3237 0.0 0
M  V30 56 C 13.8887 8.9257 0.0 0
M  V30 57 C 12.2969 9.6086 0.0 0
M  V30 58 N 0.866 1.0 0.0 0 CHG=1
M  V30 59 N 0.0 -0.5 0.0 0
M  V30 60 C 14.5996 1.2533 0.0 0 CFG=1
M  V30 61 N 13.6092 -3.823 0.0 0
M  V30 62 C 12.156 -3.1114 0.0 0
M  V30 63 O 15.6159 2.3666 0.0 0
M  V30 64 C 16.3804 4.9369 0.0 0
M  V30 65 C 13.2899 9.7267 0.0 0
M  V30 66 C 15.587 1.0946 0.0 0
M  V30 67 C 12.9135 -4.5412 0.0 0
M  V30 68 N 12.0154 -4.1015 0.0 0
M  V30 69 N 17.3064 4.5595 0.0 0
M  V30 70 C 15.9432 0.1602 0.0 0
M  V30 71 C 18.0963 5.1728 0.0 0
M  V30 72 C 16.9305 0.0015 0.0 0
M  V30 73 C 15.3121 -0.6154 0.0 0
M  V30 74 N 17.9601 6.1635 0.0 0 CHG=1
M  V30 75 N 19.0224 4.7954 0.0 0
M  V30 76 C 17.2868 -0.9328 0.0 0
M  V30 77 C 15.6684 -1.5498 0.0 0
M  V30 78 C 16.6557 -1.7085 0.0 0
M  V30 END ATOM
M  V30 BEGIN BOND
M  V30 1 1 1 2
M  V30 2 1 1 3
M  V30 3 1 2 4
M  V30 4 1 5 3
M  V30 5 1 6 4
M  V30 6 1 5 7 CFG=1
M  V30 7 1 5 8
M  V30 8 1 6 9
M  V30 9 1 6 10 CFG=1
M  V30 10 1 7 11
M  V30 11 2 8 12
M  V30 12 1 8 13
M  V30 13 1 9 14
M  V30 14 2 10 15
M  V30 15 1 10 16
M  V30 16 2 11 17
M  V30 17 1 18 11
M  V30 18 1 19 13
M  V30 19 2 14 20
M  V30 20 1 21 14
M  V30 21 1 18 22 CFG=1
M  V30 22 1 18 23
M  V30 23 1 19 24
M  V30 24 1 19 25 CFG=1
M  V30 25 1 21 26
M  V30 26 1 21 27 CFG=3
M  V30 27 1 22 28
M  V30 28 1 23 29
M  V30 29 2 24 30
M  V30 30 1 24 31
M  V30 31 1 26 32
M  V30 32 1 27 33
M  V30 33 2 28 34
M  V30 34 1 28 35
M  V30 35 1 29 36
M  V30 36 1 37 31
M  V30 37 2 32 38
M  V30 38 1 39 32
M  V30 39 1 33 40
M  V30 40 2 33 41
M  V30 41 1 36 42
M  V30 42 1 37 43
M  V30 43 1 37 44 CFG=3
M  V30 44 1 39 45
M  V30 45 1 39 46 CFG=3
M  V30 46 2 40 47
M  V30 47 1 40 48
M  V30 48 1 41 49
M  V30 49 1 42 50
M  V30 50 2 43 51
M  V30 51 1 43 52
M  V30 52 1 44 53
M  V30 53 1 45 54
M  V30 54 1 46 55
M  V30 55 1 47 56
M  V30 56 2 48 57
M  V30 57 2 50 58
M  V30 58 1 50 59
M  V30 59 1 60 52
M  V30 60 1 53 61
M  V30 61 2 53 62
M  V30 62 2 54 63
M  V30 63 1 55 64
M  V30 64 2 56 65
M  V30 65 1 60 66 CFG=1
M  V30 66 1 61 67
M  V30 67 1 62 68
M  V30 68 1 64 69
M  V30 69 1 66 70
M  V30 70 1 69 71
M  V30 71 2 70 72
M  V30 72 1 70 73
M  V30 73 2 71 74
M  V30 74 1 71 75
M  V30 75 1 72 76
M  V30 76 2 73 77
M  V30 77 2 76 78
M  V30 78 1 47 49
M  V30 79 1 54 60
M  V30 80 1 57 65
M  V30 81 2 67 68
M  V30 82 1 77 78
M  V30 END BOND
M  V30 BEGIN COLLECTION
M  V30 MDLV30/STERAC1 ATOMS=(8 5 6 18 19 21 37 39 60)
M  V30 END COLLECTION
M  V30 END CTAB
M  END
>  <Molecule Name>


>  <status>
-

>  <cas>
920014-72-8

>  <name>
SETMELANOTIDE

>  <ID>
2011

>  <Smiles>
C[C@H](C(N[C@@H](Cc1cnc[nH]1)C(N[C@H](Cc1ccccc1)C(N[C@@H](CCCNC(N)=[NH2+])C(N[C@@H](Cc1c[nH]c2c1cccc2)C(N[C@@H](CSSC[C@@H]1NC([C@H](CCCNC(N)=[NH2+])NC(C)=O)=O)C(N)=O)=O)=O)=O)=O)=O)NC1=O

$$$$

Actelion Java MolfileCreator 2.0

  0  0  0  0  0  0              0 V3000
M  V30 BEGIN CTAB
M  V30 COUNTS 36 40 0 0 0
M  V30 BEGIN ATOM
M  V30 1 Br 3.4327 2.1117 0.0 0
M  V30 2 C 4.1658 2.7919 0.0 0
M  V30 3 C 5.1214 2.4972 0.0 0
M  V30 4 C 3.9433 3.7668 0.0 0
M  V30 5 C 5.8544 3.1773 0.0 0
M  V30 6 C 5.1961 1.5 0.0 0 CFG=1
M  V30 7 C 4.6763 4.447 0.0 0
M  V30 8 C 5.6319 4.1523 0.0 0
M  V30 9 C 6.8433 3.0283 0.0 0
M  V30 10 C 6.0223 0.9366 0.0 0
M  V30 11 C 4.3301 1.0 0.0 0
M  V30 12 Cl 4.4538 5.4219 0.0 0
M  V30 13 C 7.3433 2.1623 0.0 0
M  V30 14 N 5.7998 -0.0382 0.0 0
M  V30 15 C 6.9779 1.2314 0.0 0
M  V30 16 C 3.4641 1.5 0.0 0
M  V30 17 C 4.3301 0.0 0.0 0
M  V30 18 C 6.5329 -0.7184 0.0 0
M  V30 19 C 7.711 0.5512 0.0 0
M  V30 20 C 2.598 0.9999 0.0 0
M  V30 21 C 3.4641 -0.4999 0.0 0
M  V30 22 C 7.4884 -0.4236 0.0 0
M  V30 23 N 2.598 0.0 0.0 0
M  V30 24 Br 8.2215 -1.1038 0.0 0
M  V30 25 C 1.732 -0.5 0.0 0
M  V30 26 O 1.732 -1.5 0.0 0
M  V30 27 C 0.866 0.0 0.0 0
M  V30 28 C 0.0 -0.5 0.0 0
M  V30 29 C -0.866 0.0 0.0 0
M  V30 30 C 0.0 -1.4999 0.0 0
M  V30 31 C -1.732 -0.4999 0.0 0
M  V30 32 C -0.866 -1.9999 0.0 0
M  V30 33 N -1.732 -1.4999 0.0 0
M  V30 34 C -2.598 -1.9999 0.0 0
M  V30 35 O -3.4641 -1.4999 0.0 0
M  V30 36 N -2.598 -2.9999 0.0 0
M  V30 END ATOM
M  V30 BEGIN BOND
M  V30 1 1 1 2
M  V30 2 2 2 3
M  V30 3 1 2 4
M  V30 4 1 3 5
M  V30 5 1 6 3
M  V30 6 2 4 7
M  V30 7 2 5 8
M  V30 8 1 5 9
M  V30 9 1 6 10
M  V30 10 1 6 11 CFG=1
M  V30 11 1 7 12
M  V30 12 1 9 13
M  V30 13 2 10 14
M  V30 14 1 10 15
M  V30 15 1 11 16
M  V30 16 1 11 17
M  V30 17 1 14 18
M  V30 18 2 15 19
M  V30 19 1 16 20
M  V30 20 1 17 21
M  V30 21 2 18 22
M  V30 22 1 20 23
M  V30 23 1 22 24
M  V30 24 1 23 25
M  V30 25 2 25 26
M  V30 26 1 25 27
M  V30 27 1 27 28
M  V30 28 1 28 29
M  V30 29 1 28 30
M  V30 30 1 29 31
M  V30 31 1 30 32
M  V30 32 1 31 33
M  V30 33 1 33 34
M  V30 34 2 34 35
M  V30 35 1 34 36
M  V30 36 1 7 8
M  V30 37 1 13 15
M  V30 38 1 19 22
M  V30 39 1 21 23
M  V30 40 1 32 33
M  V30 END BOND
M  V30 BEGIN COLLECTION
M  V30 MDLV30/STERAC1 ATOMS=(1 6)
M  V30 END COLLECTION
M  V30 END CTAB
M  END
>  <Molecule Name>


>  <status>
-

>  <cas>
193275-84-2

>  <name>
LONAFARNIB

>  <ID>
2012

>  <Smiles>
NC(N1CCC(CC(N(CC2)CCC2C(c(c(CCc2c3)cc(Cl)c4)c4Br)c2ncc3Br)=O)CC1)=O

$$$$

Actelion Java MolfileCreator 2.0

  0  0  0  0  0  0              0 V3000
M  V30 BEGIN CTAB
M  V30 COUNTS 24 27 0 0 0
M  V30 BEGIN ATOM
M  V30 1 P -2.598 8.25 0.0 0 CFG=2
M  V30 2 O -3.348 9.549 0.0 0
M  V30 3 O -2.598 6.75 0.0 0
M  V30 4 O -1.299 9.0 0.0 0
M  V30 5 O -4.098 8.25 0.0 0 CHG=-1
M  V30 6 C -1.299 6.0 0.0 0 CFG=1
M  V30 7 C 0.0 8.25 0.0 0
M  V30 8 C -1.299 4.5 0.0 0
M  V30 9 C 0.0 6.75 0.0 0 CFG=2
M  V30 10 O -2.799 4.5 0.0 0
M  V30 11 O -2.049 3.2009 0.0 0
M  V30 12 C 0.0 3.75 0.0 0 CFG=1
M  V30 13 O 1.299 6.0 0.0 0
M  V30 14 N 0.0 2.25 0.0 0
M  V30 15 C 1.299 4.5 0.0 0 CFG=2
M  V30 16 C 1.299 1.5 0.0 0
M  V30 17 N 2.598 3.75 0.0 0
M  V30 18 C 2.598 2.25 0.0 0
M  V30 19 C 1.299 0.0 0.0 0
M  V30 20 N 3.8971 1.5 0.0 0
M  V30 21 O 0.0 -0.75 0.0 0
M  V30 22 N 2.598 -0.75 0.0 0
M  V30 23 C 3.8971 0.0 0.0 0
M  V30 24 N 5.1961 -0.75 0.0 0
M  V30 END ATOM
M  V30 BEGIN BOND
M  V30 1 2 1 2
M  V30 2 1 1 3
M  V30 3 1 1 4
M  V30 4 1 1 5 CFG=3
M  V30 5 1 6 3 CFG=3
M  V30 6 1 4 7
M  V30 7 1 6 8
M  V30 8 1 9 6
M  V30 9 1 8 10
M  V30 10 1 8 11
M  V30 11 1 12 8
M  V30 12 1 9 13 CFG=3
M  V30 13 1 12 14 CFG=3
M  V30 14 1 15 12
M  V30 15 1 14 16
M  V30 16 1 15 17 CFG=3
M  V30 17 2 16 18
M  V30 18 1 16 19
M  V30 19 1 18 20
M  V30 20 2 19 21
M  V30 21 1 19 22
M  V30 22 1 20 23
M  V30 23 1 23 24
M  V30 24 1 7 9
M  V30 25 1 13 15
M  V30 26 1 17 18
M  V30 27 2 22 23
M  V30 END BOND
M  V30 BEGIN COLLECTION
M  V30 MDLV30/STERAC1 ATOMS=(5 1 6 9 12 15)
M  V30 END COLLECTION
M  V30 END CTAB
M  END
>  <Molecule Name>


>  <status>
-

>  <cas>
150829-29-1

>  <name>
FOSDENOPTERIN

>  <ID>
2013

>  <Smiles>
NC(NC(N[C@H]1O[C@@H](CO2)[C@H]3O[P@@]2([O-])=O)=C2N[C@@H]1C3(O)O)=NC2=O

$$$$

Actelion Java MolfileCreator 2.0

  0  0  0  0  0  0              0 V3000
M  V30 BEGIN CTAB
M  V30 COUNTS 41 45 0 0 0
M  V30 BEGIN ATOM
M  V30 1 F 6.0621 -1.9999 0.0 0
M  V30 2 C 5.1961 -1.4999 0.0 0
M  V30 3 C 5.1961 -0.5 0.0 0
M  V30 4 C 4.3301 -1.9999 0.0 0
M  V30 5 N 6.0621 0.0 0.0 0
M  V30 6 C 4.3301 0.0 0.0 0
M  V30 7 C 3.4641 -1.5 0.0 0
M  V30 8 C 6.9282 -0.5 0.0 0
M  V30 9 C 3.4641 -0.5 0.0 0
M  V30 10 O 6.9282 -1.5 0.0 0
M  V30 11 C 7.7942 0.0 0.0 0
M  V30 12 C 2.598 0.0 0.0 0 CFG=1
M  V30 13 N 8.7077 -0.4067 0.0 0
M  V30 14 C 7.8987 0.9945 0.0 0
M  V30 15 N 1.732 -0.5 0.0 0
M  V30 16 C 2.598 1.0 0.0 0
M  V30 17 N 9.3769 0.3364 0.0 0
M  V30 18 C 8.9156 -1.3848 0.0 0
M  V30 19 C 8.8769 1.2024 0.0 0
M  V30 20 C 0.866 0.0 0.0 0
M  V30 21 C 3.4641 1.5 0.0 0
M  V30 22 C 1.732 1.4999 0.0 0
M  V30 23 C 8.1725 -2.054 0.0 0
M  V30 24 C 9.8667 -1.6939 0.0 0
M  V30 25 C 9.2836 2.1159 0.0 0
M  V30 26 C 0.0 -0.5 0.0 0
M  V30 27 C 3.4641 2.5 0.0 0
M  V30 28 C 1.732 2.5 0.0 0
M  V30 29 C 8.3804 -3.0321 0.0 0
M  V30 30 C 10.0746 -2.672 0.0 0
M  V30 31 F 8.37 2.5227 0.0 0
M  V30 32 F 9.6903 3.0295 0.0 0
M  V30 33 F 10.1971 1.7092 0.0 0
M  V30 34 C -1.0 -0.4999 0.0 0
M  V30 35 C -0.5 -1.366 0.0 0
M  V30 36 C 4.3301 3.0 0.0 0
M  V30 37 C 2.598 3.0 0.0 0
M  V30 38 C 9.3315 -3.3411 0.0 0
M  V30 39 C 7.6373 -3.7012 0.0 0
M  V30 40 N 5.1961 3.5 0.0 0
M  V30 41 N 7.8452 -4.6794 0.0 0
M  V30 END ATOM
M  V30 BEGIN BOND
M  V30 1 1 1 2
M  V30 2 2 2 3
M  V30 3 1 2 4
M  V30 4 1 3 5
M  V30 5 1 3 6
M  V30 6 2 4 7
M  V30 7 1 5 8
M  V30 8 2 6 9
M  V30 9 2 8 10
M  V30 10 1 8 11
M  V30 11 1 12 9
M  V30 12 1 11 13
M  V30 13 2 11 14
M  V30 14 1 12 15 CFG=1
M  V30 15 1 12 16
M  V30 16 1 13 17
M  V30 17 1 13 18
M  V30 18 1 14 19
M  V30 19 1 15 20
M  V30 20 2 16 21
M  V30 21 1 16 22
M  V30 22 2 18 23
M  V30 23 1 18 24
M  V30 24 1 19 25
M  V30 25 1 20 26
M  V30 26 1 21 27
M  V30 27 2 22 28
M  V30 28 1 23 29
M  V30 29 2 24 30
M  V30 30 1 25 31
M  V30 31 1 25 32
M  V30 32 1 25 33
M  V30 33 1 26 34
M  V30 34 1 26 35
M  V30 35 1 27 36
M  V30 36 2 27 37
M  V30 37 2 29 38
M  V30 38 1 29 39
M  V30 39 3 36 40
M  V30 40 1 39 41
M  V30 41 1 7 9
M  V30 42 2 17 19
M  V30 43 1 28 37
M  V30 44 1 30 38
M  V30 45 1 34 35
M  V30 END BOND
M  V30 BEGIN COLLECTION
M  V30 MDLV30/STERAC1 ATOMS=(1 12)
M  V30 END COLLECTION
M  V30 END CTAB
M  END
>  <Molecule Name>


>  <status>
-

>  <cas>
1809010-50-1

>  <name>
BEROTRALSTAT

>  <ID>
2014

>  <Smiles>
NCc1cccc(-n2nc(C(F)(F)F)cc2C(Nc(cc(C(c2cc(C#N)ccc2)NCC2CC2)cc2)c2F)=O)c1

$$$$

Actelion Java MolfileCreator 2.0

  0  0  0  0  0  0              0 V3000
M  V30 BEGIN CTAB
M  V30 COUNTS 37 41 0 0 0
M  V30 BEGIN ATOM
M  V30 1 O 6.0621 5.9999 0.0 0
M  V30 2 C 6.9282 5.5 0.0 0
M  V30 3 N 6.9282 4.5 0.0 0
M  V30 4 C 7.7942 6.0 0.0 0
M  V30 5 N 7.7942 4.0 0.0 0
M  V30 6 C 6.0621 4.0 0.0 0
M  V30 7 C 8.6602 5.5 0.0 0
M  V30 8 C 8.6602 4.5 0.0 0
M  V30 9 C 6.0621 3.0 0.0 0
M  V30 10 C 9.5262 4.0 0.0 0
M  V30 11 C 5.1961 2.5 0.0 0
M  V30 12 C 6.9282 2.5 0.0 0
M  V30 13 C 9.5262 3.0 0.0 0
M  V30 14 C 10.3923 4.5 0.0 0
M  V30 15 C 5.1961 1.5 0.0 0
M  V30 16 C 6.9282 1.5 0.0 0
M  V30 17 C 10.3923 2.5 0.0 0
M  V30 18 C 11.2583 4.0 0.0 0
M  V30 19 C 4.3301 1.0 0.0 0
M  V30 20 C 6.0621 1.0 0.0 0
M  V30 21 C 10.3923 1.5 0.0 0
M  V30 22 C 11.2583 3.0 0.0 0
M  V30 23 N 3.4641 1.5 0.0 0
M  V30 24 N 4.3301 0.0 0.0 0
M  V30 25 N 10.3923 0.5 0.0 0
M  V30 26 C 2.598 0.9999 0.0 0
M  V30 27 C 3.4641 -0.4999 0.0 0
M  V30 28 C 2.598 0.0 0.0 0
M  V30 29 O 1.732 -0.5 0.0 0
M  V30 30 C 0.866 0.0 0.0 0
M  V30 31 C 0.0 -0.5 0.0 0
M  V30 32 C -0.866 0.0 0.0 0
M  V30 33 C 0.0 -1.4999 0.0 0
M  V30 34 C -1.732 -0.4999 0.0 0
M  V30 35 C -0.866 -1.9999 0.0 0
M  V30 36 N -1.732 -1.4999 0.0 0
M  V30 37 C -2.598 -1.9999 0.0 0
M  V30 END ATOM
M  V30 BEGIN BOND
M  V30 1 2 1 2
M  V30 2 1 2 3
M  V30 3 1 2 4
M  V30 4 1 3 5
M  V30 5 1 3 6
M  V30 6 2 4 7
M  V30 7 2 5 8
M  V30 8 1 6 9
M  V30 9 1 8 10
M  V30 10 2 9 11
M  V30 11 1 9 12
M  V30 12 2 10 13
M  V30 13 1 10 14
M  V30 14 1 11 15
M  V30 15 2 12 16
M  V30 16 1 13 17
M  V30 17 2 14 18
M  V30 18 1 15 19
M  V30 19 2 15 20
M  V30 20 1 17 21
M  V30 21 2 17 22
M  V30 22 2 19 23
M  V30 23 1 19 24
M  V30 24 3 21 25
M  V30 25 1 23 26
M  V30 26 2 24 27
M  V30 27 2 26 28
M  V30 28 1 28 29
M  V30 29 1 29 30
M  V30 30 1 30 31
M  V30 31 1 31 32
M  V30 32 1 31 33
M  V30 33 1 32 34
M  V30 34 1 33 35
M  V30 35 1 34 36
M  V30 36 1 36 37
M  V30 37 1 7 8
M  V30 38 1 16 20
M  V30 39 1 18 22
M  V30 40 1 27 28
M  V30 41 1 35 36
M  V30 END BOND
M  V30 END CTAB
M  END
>  <Molecule Name>


>  <status>
-

>  <cas>
1100598-32-0

>  <name>
TEPOTINIB

>  <ID>
2015

>  <Smiles>
CN1CCC(COc2cnc(-c3cccc(CN(C(C=C4)=O)N=C4c4cc(C#N)ccc4)c3)nc2)CC1

$$$$

Actelion Java MolfileCreator 2.0

  0  0  0  0  0  0              0 V3000
M  V30 BEGIN CTAB
M  V30 COUNTS 22 25 0 0 0
M  V30 BEGIN ATOM
M  V30 1 O 1.4931 5.9671 0.0 0
M  V30 2 C 1.3886 4.9726 0.0 0
M  V30 3 C 2.1976 4.3848 0.0 0
M  V30 4 C 0.4751 4.5658 0.0 0
M  V30 5 C 2.0931 3.3903 0.0 0
M  V30 6 C 0.3705 3.5713 0.0 0
M  V30 7 C 1.1796 2.9835 0.0 0
M  V30 8 C 2.9021 2.8025 0.0 0
M  V30 9 C 1.075 1.989 0.0 0 CFG=2
M  V30 10 C 2.7976 1.8079 0.0 0
M  V30 11 C 1.884 1.4012 0.0 0 CFG=1
M  V30 12 C 0.1615 1.5823 0.0 0
M  V30 13 C 1.7795 0.4067 0.0 0 CFG=1
M  V30 14 C 0.057 0.5877 0.0 0
M  V30 15 C 0.866 0.0 0.0 0 CFG=2
M  V30 16 C 2.4487 -0.3364 0.0 0 CFG=1
M  V30 17 C 0.9705 -0.9945 0.0 0 CFG=2
M  V30 18 C 0.0 -0.5 0.0 0
M  V30 19 O 3.4432 -0.2318 0.0 0
M  V30 20 C 1.9487 -1.2024 0.0 0 CFG=2
M  V30 21 O 0.2274 -1.6636 0.0 0
M  V30 22 O 2.3554 -2.1159 0.0 0
M  V30 END ATOM
M  V30 BEGIN BOND
M  V30 1 1 1 2
M  V30 2 2 2 3
M  V30 3 1 2 4
M  V30 4 1 3 5
M  V30 5 2 4 6
M  V30 6 2 5 7
M  V30 7 1 5 8
M  V30 8 1 9 7
M  V30 9 1 8 10
M  V30 10 1 11 9
M  V30 11 1 9 12 CFG=3
M  V30 12 1 13 11 CFG=3
M  V30 13 1 12 14
M  V30 14 1 15 13
M  V30 15 1 16 13
M  V30 16 1 17 15
M  V30 17 1 15 18 CFG=3
M  V30 18 1 16 19 CFG=1
M  V30 19 1 20 16
M  V30 20 1 17 21 CFG=3
M  V30 21 1 20 22 CFG=1
M  V30 22 1 6 7
M  V30 23 1 11 10 CFG=1
M  V30 24 1 14 15
M  V30 25 1 17 20
M  V30 END BOND
M  V30 BEGIN COLLECTION
M  V30 MDLV30/STERAC1 ATOMS=(7 9 11 13 15 16 17 20)
M  V30 END COLLECTION
M  V30 END CTAB
M  END
>  <Molecule Name>


>  <status>
-

>  <cas>
15183-37-6

>  <name>
ESTETROL

>  <ID>
2016

>  <Smiles>
C[C@](CC1)([C@@H]([C@H]([C@H]2O)O)[C@H](CC3)[C@H]1c(cc1)c3cc1O)[C@H]2O

$$$$

Actelion Java MolfileCreator 2.0

  0  0  0  0  0  0              0 V3000
M  V30 BEGIN CTAB
M  V30 COUNTS 33 38 0 0 0
M  V30 BEGIN ATOM
M  V30 1 O 9.8778 -2.5567 0.0 0
M  V30 2 C 8.9961 -1.3432 0.0 0
M  V30 3 N 9.6063 0.0271 0.0 0
M  V30 4 C 7.5044 -1.4999 0.0 0
M  V30 5 C 8.7246 1.2406 0.0 0
M  V30 6 N 6.6227 -0.2864 0.0 0
M  V30 7 C 6.6227 -2.7135 0.0 0
M  V30 8 C 7.2328 1.0838 0.0 0
M  V30 9 C 5.1961 -0.7499 0.0 0
M  V30 10 C 5.1961 -2.25 0.0 0
M  V30 11 C 7.8429 2.4541 0.0 0
M  V30 12 C 5.741 0.927 0.0 0
M  V30 13 N 3.8971 0.0 0.0 0
M  V30 14 C 3.8971 -3.0 0.0 0
M  V30 15 C 6.9612 3.6676 0.0 0
M  V30 16 C 4.8593 2.1405 0.0 0
M  V30 17 C 2.598 -0.75 0.0 0
M  V30 18 N 2.598 -2.2499 0.0 0
M  V30 19 C 5.4694 3.5108 0.0 0
M  V30 20 N 1.299 0.0 0.0 0
M  V30 21 C 0.0 -0.75 0.0 0
M  V30 22 N -1.299 0.0 0.0 0
M  V30 23 C 0.0 -2.25 0.0 0
M  V30 24 C -2.598 -0.7499 0.0 0
M  V30 25 C -1.299 -2.9999 0.0 0
M  V30 26 C -2.598 -2.2499 0.0 0
M  V30 27 N -3.8971 -2.9999 0.0 0
M  V30 28 C -5.1961 -2.2499 0.0 0
M  V30 29 C -3.8971 -4.4999 0.0 0
M  V30 30 C -6.4951 -2.9999 0.0 0
M  V30 31 C -5.1961 -5.2499 0.0 0
M  V30 32 N -6.4951 -4.4999 0.0 0
M  V30 33 C -7.7942 -5.2499 0.0 0
M  V30 END ATOM
M  V30 BEGIN BOND
M  V30 1 2 1 2
M  V30 2 1 2 3
M  V30 3 1 2 4
M  V30 4 1 3 5
M  V30 5 1 4 6
M  V30 6 2 4 7
M  V30 7 1 5 8
M  V30 8 1 6 9
M  V30 9 1 7 10
M  V30 10 1 8 11
M  V30 11 1 8 12
M  V30 12 1 9 13
M  V30 13 1 10 14
M  V30 14 1 11 15
M  V30 15 1 12 16
M  V30 16 2 13 17
M  V30 17 2 14 18
M  V30 18 1 15 19
M  V30 19 1 17 20
M  V30 20 1 20 21
M  V30 21 2 21 22
M  V30 22 1 21 23
M  V30 23 1 22 24
M  V30 24 2 23 25
M  V30 25 2 24 26
M  V30 26 1 26 27
M  V30 27 1 27 28
M  V30 28 1 27 29
M  V30 29 1 28 30
M  V30 30 1 29 31
M  V30 31 1 30 32
M  V30 32 1 32 33
M  V30 33 1 6 8
M  V30 34 2 9 10
M  V30 35 1 16 19
M  V30 36 1 17 18
M  V30 37 1 25 26
M  V30 38 1 31 32
M  V30 END BOND
M  V30 END CTAB
M  END
>  <Molecule Name>


>  <status>
-

>  <cas>
1374743-00-6

>  <name>
TRILACICLIB

>  <ID>
2017

>  <Smiles>
CN(CC1)CCN1c(cc1)cnc1Nc1nc(n(C2(CCCCC2)CNC2=O)c2c2)c2cn1

$$$$

Actelion Java MolfileCreator 2.0

  0  0  0  0  0  0              0 V3000
M  V30 BEGIN CTAB
M  V30 COUNTS 31 34 0 0 0
M  V30 BEGIN ATOM
M  V30 1 F 15.9426 -3.0342 0.0 0
M  V30 2 C 15.3325 -4.4045 0.0 0
M  V30 3 C 13.8407 -4.5613 0.0 0
M  V30 4 C 16.2142 -5.618 0.0 0
M  V30 5 C 13.2306 -5.9316 0.0 0
M  V30 6 C 12.959 -3.3478 0.0 0
M  V30 7 C 15.604 -6.9883 0.0 0
M  V30 8 C 14.1123 -7.1451 0.0 0
M  V30 9 N 11.4672 -3.5046 0.0 0
M  V30 10 N 10.4635 -2.3898 0.0 0
M  V30 11 C 10.7172 -4.8036 0.0 0
M  V30 12 C 9.0932 -3.0 0.0 0
M  V30 13 N 11.1808 -6.2302 0.0 0
M  V30 14 C 9.25 -4.4917 0.0 0
M  V30 15 C 7.7942 -2.25 0.0 0
M  V30 16 C 10.1771 -7.3449 0.0 0
M  V30 17 C 8.2463 -5.6065 0.0 0
M  V30 18 N 7.7942 -0.75 0.0 0
M  V30 19 N 6.4951 -2.9999 0.0 0
M  V30 20 C 8.7098 -7.033 0.0 0
M  V30 21 C 6.4951 0.0 0.0 0
M  V30 22 C 5.1961 -2.25 0.0 0
M  V30 23 F 7.7061 -8.1478 0.0 0
M  V30 24 N 6.4951 1.5 0.0 0
M  V30 25 C 5.1961 -0.75 0.0 0
M  V30 26 N 3.8971 -3.0 0.0 0
M  V30 27 N 3.8971 0.0 0.0 0
M  V30 28 C 2.598 -0.75 0.0 0
M  V30 29 O 2.598 -2.25 0.0 0
M  V30 30 O 1.299 0.0 0.0 0
M  V30 31 C 0.0 -0.75 0.0 0
M  V30 END ATOM
M  V30 BEGIN BOND
M  V30 1 1 1 2
M  V30 2 2 2 3
M  V30 3 1 2 4
M  V30 4 1 3 5
M  V30 5 1 3 6
M  V30 6 2 4 7
M  V30 7 2 5 8
M  V30 8 1 6 9
M  V30 9 1 9 10
M  V30 10 1 9 11
M  V30 11 2 10 12
M  V30 12 2 11 13
M  V30 13 1 11 14
M  V30 14 1 12 15
M  V30 15 1 13 16
M  V30 16 2 14 17
M  V30 17 2 15 18
M  V30 18 1 15 19
M  V30 19 2 16 20
M  V30 20 1 18 21
M  V30 21 2 19 22
M  V30 22 1 20 23
M  V30 23 1 21 24
M  V30 24 2 21 25
M  V30 25 1 22 26
M  V30 26 1 25 27
M  V30 27 1 27 28
M  V30 28 2 28 29
M  V30 29 1 28 30
M  V30 30 1 30 31
M  V30 31 1 7 8
M  V30 32 1 12 14
M  V30 33 1 17 20
M  V30 34 1 22 25
M  V30 END BOND
M  V30 END CTAB
M  END
>  <Molecule Name>


>  <status>
-

>  <cas>
1350653-20-1

>  <name>
VERICIGUAT

>  <ID>
2018

>  <Smiles>
COC(Nc1c(N)nc(-c(c2c3)nn(Cc(cccc4)c4F)c2ncc3F)nc1N)=O

$$$$

Actelion Java MolfileCreator 2.0

  0  0  0  0  0  0              0 V3000
M  V30 BEGIN CTAB
M  V30 COUNTS 33 34 0 0 0
M  V30 BEGIN ATOM
M  V30 1 Cl 9.5262 4.0 0.0 0
M  V30 2 C 9.5262 2.9999 0.0 0
M  V30 3 C 10.3923 2.5 0.0 0
M  V30 4 N 10.3923 1.5 0.0 0
M  V30 5 C 9.5262 1.0 0.0 0
M  V30 6 C 11.2583 0.9999 0.0 0
M  V30 7 C 8.6602 1.5 0.0 0
M  V30 8 C 9.5262 0.0 0.0 0
M  V30 9 C 11.2583 0.0 0.0 0
M  V30 10 C 7.7942 0.9999 0.0 0
M  V30 11 C 8.6602 -0.4999 0.0 0
M  V30 12 Cl 12.1243 -0.4999 0.0 0
M  V30 13 C 7.7942 0.0 0.0 0
M  V30 14 C 6.9282 -0.5 0.0 0
M  V30 15 C 6.0621 0.0 0.0 0 CFG=2
M  V30 16 N 6.0621 0.9999 0.0 0
M  V30 17 C 5.1961 -0.5 0.0 0
M  V30 18 O 5.1961 -1.4999 0.0 0
M  V30 19 N 4.3301 0.0 0.0 0
M  V30 20 C 3.4641 -0.5 0.0 0 CFG=2
M  V30 21 C 2.598 0.0 0.0 0
M  V30 22 C 3.4641 -1.5 0.0 0
M  V30 23 O 2.598 1.0 0.0 0
M  V30 24 O 1.732 -0.5 0.0 0
M  V30 25 C 2.598 -2.0 0.0 0
M  V30 26 C 0.866 0.0 0.0 0
M  V30 27 C 2.598 -3.0 0.0 0
M  V30 28 C 1.732 -1.5 0.0 0
M  V30 29 C 0.0 -0.5 0.0 0
M  V30 30 C 1.732 -3.5 0.0 0
M  V30 31 C 0.866 -1.9999 0.0 0
M  V30 32 C 0.866 -3.0 0.0 0
M  V30 33 F 0.0 -3.5 0.0 0
M  V30 END ATOM
M  V30 BEGIN BOND
M  V30 1 1 1 2
M  V30 2 1 2 3
M  V30 3 1 3 4
M  V30 4 1 4 5
M  V30 5 1 4 6
M  V30 6 2 5 7
M  V30 7 1 5 8
M  V30 8 1 6 9
M  V30 9 1 7 10
M  V30 10 2 8 11
M  V30 11 1 9 12
M  V30 12 2 10 13
M  V30 13 1 13 14
M  V30 14 1 15 14
M  V30 15 1 15 16 CFG=1
M  V30 16 1 15 17
M  V30 17 2 17 18
M  V30 18 1 17 19
M  V30 19 1 20 19 CFG=1
M  V30 20 1 20 21
M  V30 21 1 20 22
M  V30 22 2 21 23
M  V30 23 1 21 24
M  V30 24 1 22 25
M  V30 25 1 24 26
M  V30 26 2 25 27
M  V30 27 1 25 28
M  V30 28 1 26 29
M  V30 29 1 27 30
M  V30 30 2 28 31
M  V30 31 2 30 32
M  V30 32 1 32 33
M  V30 33 1 11 13
M  V30 34 1 31 32
M  V30 END BOND
M  V30 BEGIN COLLECTION
M  V30 MDLV30/STERAC1 ATOMS=(2 15 20)
M  V30 END COLLECTION
M  V30 END CTAB
M  END
>  <Molecule Name>


>  <status>
DISCONTINUED

>  <cas>
380449-51-4

>  <name>
MELPHALAN FLUFENAMIDE

>  <ID>
2019

>  <Smiles>
CCOC([C@H](Cc(cc1)ccc1F)NC([C@H](Cc(cc1)ccc1N(CCCl)CCCl)N)=O)=O

$$$$

Actelion Java MolfileCreator 2.0

  0  0  0  0  0  0              0 V3000
M  V30 BEGIN CTAB
M  V30 COUNTS 38 38 0 0 0
M  V30 BEGIN ATOM
M  V30 1 P 27.2798 0.0 0.0 0 CFG=2
M  V30 2 O 28.0298 1.299 0.0 0
M  V30 3 O 25.9807 -0.75 0.0 0
M  V30 4 O 26.5298 1.299 0.0 0 CHG=-1
M  V30 5 C 28.5788 -0.75 0.0 0
M  V30 6 C 24.6817 0.0 0.0 0
M  V30 7 O 29.8779 0.0 0.0 0
M  V30 8 C 23.3827 -0.75 0.0 0
M  V30 9 C 31.1769 -0.75 0.0 0 CFG=2
M  V30 10 C 22.0836 0.0 0.0 0
M  V30 11 C 32.4759 0.0 0.0 0
M  V30 12 C 31.1769 -2.25 0.0 0
M  V30 13 O 20.7846 -0.75 0.0 0
M  V30 14 O 33.775 -0.75 0.0 0
M  V30 15 N 32.4759 -3.0 0.0 0
M  V30 16 C 19.4855 0.0 0.0 0
M  V30 17 C 32.4759 -4.5 0.0 0
M  V30 18 C 33.775 -2.25 0.0 0
M  V30 19 C 18.1865 -0.75 0.0 0
M  V30 20 O 31.1769 -5.25 0.0 0
M  V30 21 N 33.775 -5.25 0.0 0
M  V30 22 C 35.074 -3.0 0.0 0
M  V30 23 C 16.8875 0.0 0.0 0
M  V30 24 C 35.074 -4.5 0.0 0
M  V30 25 C 15.5884 -0.75 0.0 0
M  V30 26 N 36.3731 -5.25 0.0 0
M  V30 27 C 14.2894 0.0 0.0 0
M  V30 28 C 12.9903 -0.75 0.0 0
M  V30 29 C 11.6913 0.0 0.0 0
M  V30 30 C 10.3923 -0.75 0.0 0
M  V30 31 C 9.0932 0.0 0.0 0
M  V30 32 C 7.7942 -0.75 0.0 0
M  V30 33 C 6.4951 0.0 0.0 0
M  V30 34 C 5.1961 -0.75 0.0 0
M  V30 35 C 3.8971 0.0 0.0 0
M  V30 36 C 2.598 -0.75 0.0 0
M  V30 37 C 1.299 0.0 0.0 0
M  V30 38 C 0.0 -0.75 0.0 0
M  V30 END ATOM
M  V30 BEGIN BOND
M  V30 1 2 1 2
M  V30 2 1 1 3
M  V30 3 1 1 4 CFG=1
M  V30 4 1 1 5
M  V30 5 1 3 6
M  V30 6 1 5 7
M  V30 7 1 6 8
M  V30 8 1 9 7 CFG=3
M  V30 9 1 8 10
M  V30 10 1 9 11
M  V30 11 1 9 12
M  V30 12 1 10 13
M  V30 13 1 11 14
M  V30 14 1 12 15
M  V30 15 1 13 16
M  V30 16 1 15 17
M  V30 17 1 15 18
M  V30 18 1 16 19
M  V30 19 2 17 20
M  V30 20 1 17 21
M  V30 21 2 18 22
M  V30 22 1 19 23
M  V30 23 2 21 24
M  V30 24 1 23 25
M  V30 25 1 24 26
M  V30 26 1 25 27
M  V30 27 1 27 28
M  V30 28 1 28 29
M  V30 29 1 29 30
M  V30 30 1 30 31
M  V30 31 1 31 32
M  V30 32 1 32 33
M  V30 33 1 33 34
M  V30 34 1 34 35
M  V30 35 1 35 36
M  V30 36 1 36 37
M  V30 37 1 37 38
M  V30 38 1 22 24
M  V30 END BOND
M  V30 BEGIN COLLECTION
M  V30 MDLV30/STERAC1 ATOMS=(2 1 9)
M  V30 END COLLECTION
M  V30 END CTAB
M  END
>  <Molecule Name>


>  <status>
-

>  <cas>
444805-28-1

>  <name>
BRINCIDOFOVIR

>  <ID>
2020

>  <Smiles>
CCCCCCCCCCCCCCCCOCCCO[P@](CO[C@@H](CN(C=CC(N)=N1)C1=O)CO)([O-])=O

$$$$

Actelion Java MolfileCreator 2.0

  0  0  0  0  0  0              0 V3000
M  V30 BEGIN CTAB
M  V30 COUNTS 44 48 0 0 0
M  V30 BEGIN ATOM
M  V30 1 S 11.7211 1.7108 0.0 0
M  V30 2 C 12.8175 2.7656 0.0 0
M  V30 3 C 10.4339 2.259 0.0 0
M  V30 4 N 14.3235 2.7656 0.0 0
M  V30 5 C 12.0645 4.0699 0.0 0
M  V30 6 C 9.1297 1.506 0.0 0
M  V30 7 C 10.5913 3.7567 0.0 0
M  V30 8 C 15.0765 4.0699 0.0 0
M  V30 9 C 15.0765 1.4614 0.0 0
M  V30 10 C 12.8175 5.3741 0.0 0
M  V30 11 C 7.8254 2.259 0.0 0
M  V30 12 C 9.1297 0.0 0.0 0
M  V30 13 C 9.4722 4.7645 0.0 0
M  V30 14 O 16.5825 4.0699 0.0 0
M  V30 15 N 14.3235 5.3741 0.0 0
M  V30 16 C 14.3235 0.1571 0.0 0
M  V30 17 O 12.0645 6.6783 0.0 0
M  V30 18 C 6.5212 1.506 0.0 0
M  V30 19 C 7.8254 -0.753 0.0 0
M  V30 20 N 9.7853 6.2376 0.0 0
M  V30 21 C 15.0765 6.6783 0.0 0
M  V30 22 C 15.0765 -1.147 0.0 0
M  V30 23 C 12.8175 0.1571 0.0 0
M  V30 24 C 6.5212 0.0 0.0 0
M  V30 25 C 11.2176 6.7029 0.0 0
M  V30 26 C 8.6661 7.2453 0.0 0
M  V30 27 N 16.5825 6.6783 0.0 0
M  V30 28 C 14.3235 7.9826 0.0 0
M  V30 29 F 16.5825 -1.147 0.0 0
M  V30 30 C 14.3235 -2.4513 0.0 0
M  V30 31 F 12.2417 1.3326 0.0 0
M  V30 32 C 12.0645 -1.147 0.0 0
M  V30 33 N 5.2169 -0.753 0.0 0
M  V30 34 N 17.3355 7.9826 0.0 0
M  V30 35 C 15.0765 9.2868 0.0 0
M  V30 36 C 12.8175 -2.4513 0.0 0
M  V30 37 C 3.9127 0.0 0.0 0
M  V30 38 C 16.5825 9.2868 0.0 0
M  V30 39 O 3.9127 1.506 0.0 0
M  V30 40 N 2.6084 -0.753 0.0 0
M  V30 41 O 17.3355 10.5911 0.0 0
M  V30 42 O 1.3042 0.0 0.0 0
M  V30 43 C 16.5825 11.8953 0.0 0
M  V30 44 C 0.0 -0.753 0.0 0
M  V30 END ATOM
M  V30 BEGIN BOND
M  V30 1 1 1 2
M  V30 2 1 1 3
M  V30 3 1 2 4
M  V30 4 2 2 5
M  V30 5 1 3 6
M  V30 6 2 3 7
M  V30 7 1 4 8
M  V30 8 1 4 9
M  V30 9 1 5 10
M  V30 10 2 6 11
M  V30 11 1 6 12
M  V30 12 1 7 13
M  V30 13 2 8 14
M  V30 14 1 8 15
M  V30 15 1 9 16
M  V30 16 2 10 17
M  V30 17 1 11 18
M  V30 18 2 12 19
M  V30 19 1 13 20
M  V30 20 1 15 21
M  V30 21 2 16 22
M  V30 22 1 16 23
M  V30 23 2 18 24
M  V30 24 1 20 25
M  V30 25 1 20 26
M  V30 26 2 21 27
M  V30 27 1 21 28
M  V30 28 1 22 29
M  V30 29 1 22 30
M  V30 30 1 23 31
M  V30 31 2 23 32
M  V30 32 1 24 33
M  V30 33 1 27 34
M  V30 34 2 28 35
M  V30 35 2 30 36
M  V30 36 1 33 37
M  V30 37 2 34 38
M  V30 38 2 37 39
M  V30 39 1 37 40
M  V30 40 1 38 41
M  V30 41 1 40 42
M  V30 42 1 41 43
M  V30 43 1 42 44
M  V30 44 1 5 7
M  V30 45 1 10 15
M  V30 46 1 19 24
M  V30 47 1 32 36
M  V30 48 1 35 38
M  V30 END BOND
M  V30 END CTAB
M  END
>  <Molecule Name>


>  <status>
-

>  <cas>
737789-87-6

>  <name>
RELUGOLIX

>  <ID>
2021

>  <Smiles>
CN(C)Cc1c(-c(cc2)ccc2NC(NOC)=O)sc(N(Cc(c(F)ccc2)c2F)C(N2c(cc3)nnc3OC)=O)c1C2=O

$$$$

Actelion Java MolfileCreator 2.0

  0  0  0  0  0  0              0 V3000
M  V30 BEGIN CTAB
M  V30 COUNTS 38 41 0 0 0
M  V30 BEGIN ATOM
M  V30 1 Cl 4.3301 0.9999 0.0 0
M  V30 2 C 4.3301 0.0 0.0 0
M  V30 3 C 3.4641 -0.5 0.0 0
M  V30 4 C 5.1961 -0.5 0.0 0
M  V30 5 N 2.598 0.0 0.0 0
M  V30 6 C 3.4641 -1.5 0.0 0
M  V30 7 O 6.0621 0.0 0.0 0
M  V30 8 C 5.1961 -1.5 0.0 0
M  V30 9 C 1.732 -0.5 0.0 0
M  V30 10 Cl 2.598 -1.9999 0.0 0
M  V30 11 C 4.3301 -2.0 0.0 0
M  V30 12 C 6.0621 0.9999 0.0 0
M  V30 13 O 1.732 -1.5 0.0 0
M  V30 14 N 0.866 0.0 0.0 0
M  V30 15 O 4.3301 -3.0 0.0 0
M  V30 16 C 0.866 1.0 0.0 0
M  V30 17 C 0.0 -0.5 0.0 0
M  V30 18 C 5.1961 -3.5 0.0 0
M  V30 19 N 1.732 1.5 0.0 0
M  V30 20 C 0.0 1.4999 0.0 0
M  V30 21 C 1.732 2.5 0.0 0
M  V30 22 C 0.0 2.4999 0.0 0
M  V30 23 N 0.866 3.0 0.0 0
M  V30 24 N -0.866 2.9999 0.0 0
M  V30 25 C -1.732 2.4999 0.0 0
M  V30 26 C -2.598 2.9999 0.0 0
M  V30 27 C -1.732 1.4999 0.0 0
M  V30 28 C -3.4641 2.5 0.0 0
M  V30 29 C -2.598 0.9999 0.0 0
M  V30 30 C -3.4641 1.4999 0.0 0
M  V30 31 N -4.3301 1.0 0.0 0
M  V30 32 C -5.1961 1.5 0.0 0
M  V30 33 C -4.3301 0.0 0.0 0
M  V30 34 C -6.0621 1.0 0.0 0
M  V30 35 C -5.1961 -0.4999 0.0 0
M  V30 36 N -6.0621 0.0 0.0 0
M  V30 37 C -6.9282 -0.4999 0.0 0
M  V30 38 C -6.9282 -1.4999 0.0 0
M  V30 END ATOM
M  V30 BEGIN BOND
M  V30 1 1 1 2
M  V30 2 2 2 3
M  V30 3 1 2 4
M  V30 4 1 3 5
M  V30 5 1 3 6
M  V30 6 1 4 7
M  V30 7 2 4 8
M  V30 8 1 5 9
M  V30 9 1 6 10
M  V30 10 2 6 11
M  V30 11 1 7 12
M  V30 12 2 9 13
M  V30 13 1 9 14
M  V30 14 1 11 15
M  V30 15 1 14 16
M  V30 16 1 14 17
M  V30 17 1 15 18
M  V30 18 2 16 19
M  V30 19 1 16 20
M  V30 20 1 19 21
M  V30 21 2 20 22
M  V30 22 2 21 23
M  V30 23 1 22 24
M  V30 24 1 24 25
M  V30 25 2 25 26
M  V30 26 1 25 27
M  V30 27 1 26 28
M  V30 28 2 27 29
M  V30 29 2 28 30
M  V30 30 1 30 31
M  V30 31 1 31 32
M  V30 32 1 31 33
M  V30 33 1 32 34
M  V30 34 1 33 35
M  V30 35 1 34 36
M  V30 36 1 36 37
M  V30 37 1 37 38
M  V30 38 1 8 11
M  V30 39 1 22 23
M  V30 40 1 29 30
M  V30 41 1 35 36
M  V30 END BOND
M  V30 END CTAB
M  END
>  <Molecule Name>


>  <status>
DISCONTINUED

>  <cas>
872511-34-7

>  <name>
INFIGRATINIB

>  <ID>
2022

>  <Smiles>
CCN(CC1)CCN1c(cc1)ccc1Nc1cc(N(C)C(Nc(c(Cl)c(cc2OC)OC)c2Cl)=O)ncn1

$$$$

Actelion Java MolfileCreator 2.0

  0  0  0  0  0  0              0 V3000
M  V30 BEGIN CTAB
M  V30 COUNTS 41 45 0 0 0
M  V30 BEGIN ATOM
M  V30 1 F 6.9282 -1.5 0.0 0
M  V30 2 C 6.9282 -0.4999 0.0 0
M  V30 3 C 7.7942 0.0 0.0 0
M  V30 4 C 6.0621 0.0 0.0 0
M  V30 5 N 7.7942 1.0 0.0 0
M  V30 6 C 8.6602 -0.4999 0.0 0
M  V30 7 C 6.0621 1.0 0.0 0
M  V30 8 C 6.9282 1.5 0.0 0
M  V30 9 C 8.6602 -1.5 0.0 0
M  V30 10 C 9.5262 0.0 0.0 0
M  V30 11 C 5.1961 1.5 0.0 0
M  V30 12 N 6.9282 2.5 0.0 0
M  V30 13 F 7.7942 -2.0 0.0 0
M  V30 14 C 9.5262 -2.0 0.0 0
M  V30 15 O 9.5262 1.0 0.0 0
M  V30 16 C 10.3923 -0.5 0.0 0
M  V30 17 N 5.1961 2.5 0.0 0
M  V30 18 N 4.3301 1.0 0.0 0
M  V30 19 C 6.0621 3.0 0.0 0
M  V30 20 C 7.7942 3.0 0.0 0
M  V30 21 C 10.3923 -1.4999 0.0 0
M  V30 22 C 3.4641 1.5 0.0 0 CFG=2
M  V30 23 C 4.3301 0.0 0.0 0
M  V30 24 O 6.1434 3.8184 0.0 0
M  V30 25 C 7.7942 4.0 0.0 0
M  V30 26 C 8.6602 2.4999 0.0 0
M  V30 27 C 2.598 0.9999 0.0 0
M  V30 28 C 3.4641 2.5 0.0 0
M  V30 29 C 3.4641 -0.4999 0.0 0
M  V30 30 N 8.6602 4.5 0.0 0
M  V30 31 C 6.9282 4.4999 0.0 0
M  V30 32 C 9.5262 2.9999 0.0 0
M  V30 33 C 8.6602 1.5 0.0 0
M  V30 34 N 2.598 0.0 0.0 0
M  V30 35 C 9.5262 4.0 0.0 0
M  V30 36 C 5.8121 4.0 0.0 0
M  V30 37 C 6.9282 5.5 0.0 0
M  V30 38 C 1.732 -0.5 0.0 0
M  V30 39 O 1.732 -1.5 0.0 0
M  V30 40 C 0.866 0.0 0.0 0
M  V30 41 C 0.0 -0.5 0.0 0
M  V30 END ATOM
M  V30 BEGIN BOND
M  V30 1 1 1 2
M  V30 2 2 2 3
M  V30 3 1 2 4
M  V30 4 1 3 5 CFG=3
M  V30 5 1 3 6
M  V30 6 2 4 7
M  V30 7 2 5 8
M  V30 8 2 6 9
M  V30 9 1 6 10
M  V30 10 1 7 11
M  V30 11 1 8 12
M  V30 12 1 9 13
M  V30 13 1 9 14
M  V30 14 1 10 15
M  V30 15 2 10 16
M  V30 16 2 11 17
M  V30 17 1 11 18
M  V30 18 1 12 19
M  V30 19 1 12 20
M  V30 20 2 14 21
M  V30 21 1 22 18
M  V30 22 1 18 23
M  V30 23 2 19 24
M  V30 24 2 20 25
M  V30 25 1 20 26
M  V30 26 1 22 27
M  V30 27 1 22 28 CFG=3
M  V30 28 1 23 29
M  V30 29 1 25 30
M  V30 30 1 25 31
M  V30 31 2 26 32
M  V30 32 1 26 33
M  V30 33 1 27 34
M  V30 34 2 30 35
M  V30 35 1 31 36
M  V30 36 1 31 37
M  V30 37 1 34 38
M  V30 38 2 38 39
M  V30 39 1 38 40
M  V30 40 2 40 41
M  V30 41 1 7 8
M  V30 42 1 16 21
M  V30 43 1 17 19
M  V30 44 1 29 34
M  V30 45 1 32 35
M  V30 END BOND
M  V30 BEGIN COLLECTION
M  V30 MDLV30/STEABS BONDS=(1 5)
M  V30 MDLV30/STERAC1 ATOMS=(1 22)
M  V30 END COLLECTION
M  V30 END CTAB
M  END
>  <Molecule Name>


>  <status>
-

>  <cas>
2296729-00-3

>  <name>
SOTORASIB

>  <ID>
2023

>  <Smiles>
CC(C)c(nccc1C)c1N(c(c(C(N(CC1)C(C)CN1C(C=C)=O)=N1)c2)nc(-c(c(O)ccc3)c3F)c2F)C1=O

$$$$

Actelion Java MolfileCreator 2.0

  0  0  0  0  0  0              0 V3000
M  V30 BEGIN CTAB
M  V30 COUNTS 42 45 0 0 0
M  V30 BEGIN ATOM
M  V30 1 P 10.4162 -0.7517 0.0 0 CFG=2
M  V30 2 O 9.1141 -1.5034 0.0 0
M  V30 3 O 10.4162 -2.2551 0.0 0
M  V30 4 O 11.7182 0.0 0.0 0
M  V30 5 N 9.1141 0.0 0.0 0
M  V30 6 C 11.7182 -3.0068 0.0 0
M  V30 7 C 13.0202 -0.7517 0.0 0
M  V30 8 C 7.8121 -0.7517 0.0 0 CFG=2
M  V30 9 C 13.0202 -2.2551 0.0 0
M  V30 10 C 11.7182 -4.5103 0.0 0
M  V30 11 C 14.3222 0.0 0.0 0 CFG=1
M  V30 12 C 6.5101 0.0 0.0 0
M  V30 13 C 7.8121 -2.2551 0.0 0
M  V30 14 C 14.3222 -3.0068 0.0 0
M  V30 15 C 13.0202 -5.262 0.0 0
M  V30 16 O 15.6957 -0.6115 0.0 0
M  V30 17 C 14.4794 1.4952 0.0 0 CFG=1
M  V30 18 O 6.5101 1.5034 0.0 0
M  V30 19 O 5.2081 -0.7517 0.0 0
M  V30 20 C 14.3222 -4.5103 0.0 0
M  V30 21 C 16.7017 0.5057 0.0 0 CFG=1
M  V30 22 O 13.3621 2.5012 0.0 0
M  V30 23 C 15.95 1.8077 0.0 0 CFG=2
M  V30 24 C 3.906 0.0 0.0 0
M  V30 25 C 18.1969 0.3486 0.0 0
M  V30 26 C 17.5205 1.7666 0.0 0
M  V30 27 O 16.4146 3.089 0.0 0
M  V30 28 C 2.604 -0.7517 0.0 0
M  V30 29 N 19.6921 0.1914 0.0 0
M  V30 30 N 17.0702 3.1829 0.0 0
M  V30 31 C 19.0219 1.8453 0.0 0
M  V30 32 C 2.604 -2.2551 0.0 0
M  V30 33 C 1.302 0.0 0.0 0
M  V30 34 N 15.5782 3.709 0.0 0
M  V30 35 C 18.1502 4.1164 0.0 0
M  V30 36 C 19.4111 3.2975 0.0 0
M  V30 37 C 3.906 -3.0068 0.0 0
M  V30 38 C 0.0 -0.7517 0.0 0
M  V30 39 C 15.343 5.1939 0.0 0
M  V30 40 C 17.915 5.6013 0.0 0
M  V30 41 N 16.5114 6.1401 0.0 0
M  V30 42 N 19.0834 6.5475 0.0 0
M  V30 END ATOM
M  V30 BEGIN BOND
M  V30 1 2 1 2
M  V30 2 1 1 3 CFG=3
M  V30 3 1 1 4
M  V30 4 1 1 5
M  V30 5 1 3 6
M  V30 6 1 4 7
M  V30 7 1 8 5 CFG=1
M  V30 8 2 6 9
M  V30 9 1 6 10
M  V30 10 1 11 7 CFG=3
M  V30 11 1 8 12
M  V30 12 1 8 13
M  V30 13 1 9 14
M  V30 14 2 10 15
M  V30 15 1 11 16
M  V30 16 1 17 11
M  V30 17 2 12 18
M  V30 18 1 12 19
M  V30 19 2 14 20
M  V30 20 1 21 16
M  V30 21 1 17 22 CFG=1
M  V30 22 1 23 17
M  V30 23 1 19 24
M  V30 24 1 21 25 CFG=1
M  V30 25 1 21 26
M  V30 26 1 23 27 CFG=1
M  V30 27 1 24 28
M  V30 28 3 25 29
M  V30 29 1 26 30
M  V30 30 2 26 31
M  V30 31 1 28 32
M  V30 32 1 28 33
M  V30 33 1 30 34
M  V30 34 1 30 35
M  V30 35 1 31 36
M  V30 36 1 32 37
M  V30 37 1 33 38
M  V30 38 2 34 39
M  V30 39 1 35 40
M  V30 40 1 39 41
M  V30 41 1 40 42
M  V30 42 1 15 20
M  V30 43 1 21 23
M  V30 44 2 35 36
M  V30 45 2 40 41
M  V30 END BOND
M  V30 BEGIN COLLECTION
M  V30 MDLV30/STERAC1 ATOMS=(6 1 8 11 17 21 23)
M  V30 END COLLECTION
M  V30 END CTAB
M  END
>  <Molecule Name>


>  <status>
-

>  <cas>
1809249-37-3

>  <name>
REMDESIVIR

>  <ID>
2024

>  <Smiles>
CCC(CC)COC([C@H](C)N[P@](OC[C@H]([C@H]([C@H]1O)O)O[C@]1(c1ccc2n1ncnc2N)C#N)(Oc1ccccc1)=O)=O

$$$$

Actelion Java MolfileCreator 2.0

  0  0  0  0  0  0              0 V3000
M  V30 BEGIN CTAB
M  V30 COUNTS 21 23 0 0 0
M  V30 BEGIN ATOM
M  V30 1 O 1.8365 -1.4945 0.0 0
M  V30 2 C 2.8147 -1.7024 0.0 0 CFG=2
M  V30 3 C 1.732 -0.5 0.0 0 CFG=2
M  V30 4 C 3.2214 -2.6159 0.0 0
M  V30 5 C 2.1854 -2.4795 0.0 0
M  V30 6 C 3.3147 -0.8364 0.0 0 CFG=2
M  V30 7 C 2.6455 -0.0932 0.0 0 CFG=1
M  V30 8 C 0.866 0.0 0.0 0
M  V30 9 N 3.6282 -3.5295 0.0 0
M  V30 10 N 1.1867 -2.4272 0.0 0
M  V30 11 C 2.4442 -3.4455 0.0 0
M  V30 12 O 4.3092 -0.7318 0.0 0
M  V30 13 O 2.8535 0.8848 0.0 0
M  V30 14 O 0.0 -0.5 0.0 0
M  V30 15 N 0.5574 -1.65 0.0 0
M  V30 16 C 0.8284 -3.3608 0.0 0
M  V30 17 C 1.6055 -3.9901 0.0 0
M  V30 18 C -0.4302 -1.8065 0.0 0
M  V30 19 C -0.1592 -3.5172 0.0 0
M  V30 20 N -0.7885 -2.7401 0.0 0
M  V30 21 N -0.5176 -4.4508 0.0 0
M  V30 END ATOM
M  V30 BEGIN BOND
M  V30 1 1 2 1
M  V30 2 1 3 1
M  V30 3 1 2 4 CFG=3
M  V30 4 1 2 5
M  V30 5 1 6 2
M  V30 6 1 7 3
M  V30 7 1 3 8 CFG=1
M  V30 8 3 4 9
M  V30 9 1 5 10
M  V30 10 2 5 11
M  V30 11 1 6 12 CFG=3
M  V30 12 1 7 13 CFG=3
M  V30 13 1 8 14
M  V30 14 1 10 15
M  V30 15 1 10 16
M  V30 16 1 11 17
M  V30 17 2 15 18
M  V30 18 1 16 19
M  V30 19 1 18 20
M  V30 20 1 19 21
M  V30 21 1 6 7
M  V30 22 2 16 17
M  V30 23 2 19 20
M  V30 END BOND
M  V30 BEGIN COLLECTION
M  V30 MDLV30/STERAC1 ATOMS=(4 2 3 6 7)
M  V30 END COLLECTION
M  V30 END CTAB
M  END
>  <Molecule Name>


>  <status>
-

>  <cas>
1191237-69-0

>  <name>
M REMDESIVIR

>  <ID>
2025

>  <Smiles>
Nc1ncnn2c1ccc2[C@@]([C@H]1O)(C#N)O[C@@H](CO)[C@@H]1O

$$$$

Actelion Java MolfileCreator 2.0

  0  0  0  0  0  0              0 V3000
M  V30 BEGIN CTAB
M  V30 COUNTS 53 59 0 0 0
M  V30 BEGIN ATOM
M  V30 1 O 6.3508 -6.8333 0.0 0
M  V30 2 C 6.3508 -5.8333 0.0 0
M  V30 3 O 7.2168 -5.3333 0.0 0 CHG=-1
M  V30 4 C 5.4848 -5.3333 0.0 0 CFG=2
M  V30 5 C 5.4848 -4.3333 0.0 0 CFG=2
M  V30 6 C 4.6188 -5.8333 0.0 0 CFG=2
M  V30 7 C 4.6188 -3.8333 0.0 0 CFG=2
M  V30 8 C 6.3508 -3.8333 0.0 0
M  V30 9 C 6.3508 -4.8333 0.0 0
M  V30 10 C 4.6188 -6.8333 0.0 0 CFG=2
M  V30 11 C 3.7527 -5.3333 0.0 0
M  V30 12 C 5.4848 -6.3333 0.0 0
M  V30 13 C 4.6188 -2.8333 0.0 0 CFG=1
M  V30 14 C 3.7527 -4.3333 0.0 0
M  V30 15 C 3.7527 -3.3333 0.0 0
M  V30 16 C 6.3508 -2.8333 0.0 0
M  V30 17 C 3.7527 -7.3333 0.0 0
M  V30 18 C 5.4848 -7.3333 0.0 0
M  V30 19 C 5.4848 -2.3333 0.0 0
M  V30 20 C 3.7527 -2.3333 0.0 0
M  V30 21 C 3.7527 -8.3333 0.0 0
M  V30 22 C 2.8867 -6.8333 0.0 0
M  V30 23 C 5.4848 -1.3333 0.0 0 CFG=2
M  V30 24 C 3.8008 -1.2963 0.0 0
M  V30 25 C 4.6188 -0.8333 0.0 0 CFG=2
M  V30 26 C 6.3508 -0.8333 0.0 0
M  V30 27 C 4.3301 -2.0 0.0 0
M  V30 28 C 4.6188 0.1666 0.0 0 CFG=1
M  V30 29 O 6.3508 0.1666 0.0 0
M  V30 30 C 3.3981 -1.5117 0.0 0 CFG=1
M  V30 31 C 3.4641 -0.5 0.0 0 CFG=1
M  V30 32 C 5.4848 0.6666 0.0 0
M  V30 33 C 4.1188 1.0326 0.0 0
M  V30 34 N 2.598 -2.0 0.0 0
M  V30 35 O 2.6272 -0.0041 0.0 0
M  V30 36 N 2.4935 -2.9945 0.0 0
M  V30 37 C 1.6845 -1.5932 0.0 0
M  V30 38 C 2.598 0.9999 0.0 0
M  V30 39 C 1.5154 -3.2024 0.0 0
M  V30 40 N 1.0154 -2.3364 0.0 0
M  V30 41 C 1.4766 -0.6151 0.0 0
M  V30 42 C 1.737 1.5224 0.0 0 CFG=1
M  V30 43 C 0.5255 -0.306 0.0 0
M  V30 44 C 2.1614 0.0623 0.0 0
M  V30 45 N 1.232 0.6339 0.0 0
M  V30 46 C 1.732 2.4999 0.0 0
M  V30 47 C 0.6746 1.5447 0.0 0
M  V30 48 C 0.3176 0.672 0.0 0
M  V30 49 C 1.9876 0.9783 0.0 0
M  V30 50 C 2.732 2.5 0.0 0
M  V30 51 C 1.732 3.4999 0.0 0
M  V30 52 C 0.732 2.4999 0.0 0
M  V30 53 N 1.0541 1.1848 0.0 0
M  V30 END ATOM
M  V30 BEGIN BOND
M  V30 1 2 1 2
M  V30 2 1 2 3
M  V30 3 1 4 2 CFG=1
M  V30 4 1 5 4
M  V30 5 1 6 4
M  V30 6 1 7 5
M  V30 7 1 5 8
M  V30 8 1 5 9 CFG=1
M  V30 9 1 10 6
M  V30 10 1 6 11
M  V30 11 1 6 12 CFG=1
M  V30 12 1 13 7
M  V30 13 1 7 14
M  V30 14 1 7 15 CFG=3
M  V30 15 1 8 16
M  V30 16 1 10 17
M  V30 17 1 10 18 CFG=1
M  V30 18 1 13 19
M  V30 19 1 13 20 CFG=3
M  V30 20 1 17 21
M  V30 21 1 17 22
M  V30 22 1 23 19
M  V30 23 1 20 24
M  V30 24 1 25 23
M  V30 25 1 23 26
M  V30 26 1 23 27 CFG=1
M  V30 27 1 28 25
M  V30 28 1 26 29
M  V30 29 1 30 27
M  V30 30 1 28 31 CFG=1
M  V30 31 1 28 32
M  V30 32 1 28 33
M  V30 33 1 30 34 CFG=3
M  V30 34 1 31 35 CFG=1
M  V30 35 1 34 36
M  V30 36 1 34 37
M  V30 37 1 35 38
M  V30 38 2 36 39
M  V30 39 2 37 40
M  V30 40 1 37 41
M  V30 41 1 42 38
M  V30 42 2 41 43
M  V30 43 1 41 44
M  V30 44 1 42 45 CFG=1
M  V30 45 1 42 46
M  V30 46 1 42 47
M  V30 47 1 43 48
M  V30 48 2 44 49
M  V30 49 1 46 50
M  V30 50 1 46 51
M  V30 51 1 46 52
M  V30 52 2 48 53
M  V30 53 1 11 14
M  V30 54 2 16 19
M  V30 55 1 25 24 CFG=3
M  V30 56 1 29 32
M  V30 57 1 30 31
M  V30 58 1 39 40
M  V30 59 1 49 53
M  V30 END BOND
M  V30 BEGIN COLLECTION
M  V30 MDLV30/STERAC1 ATOMS=(12 4 5 6 7 10 13 23 25 28 30 31 42)
M  V30 END COLLECTION
M  V30 END CTAB
M  END
>  <Molecule Name>


>  <status>
-

>  <cas>
1207753-03-4

>  <name>
IBREXAFUNGERP

>  <ID>
2026

>  <Smiles>
CC(C)[C@H](C)[C@](C)(CC[C@@](C)([C@@H]1CC2)[C@]3(C)CC=C1[C@@](C[C@@H]1n4ncnc4-c4ccncc4)(COC4)[C@H]2[C@@]4(C)[C@@H]1OC[C@](C)(C(C)(C)C)N)[C@@H]3C([O-])=O

$$$$

Actelion Java MolfileCreator 2.0

  0  0  0  0  0  0              0 V3000
M  V30 BEGIN CTAB
M  V30 COUNTS 66 68 0 0 0
M  V30 BEGIN ATOM
M  V30 1 O 16.7099 0.8848 0.0 0
M  V30 2 C 16.502 -0.0932 0.0 0
M  V30 3 N 15.5884 -0.5 0.0 0
M  V30 4 C 17.1711 -0.8364 0.0 0
M  V30 5 C 15.6929 -1.4945 0.0 0
M  V30 6 C 14.7224 0.0 0.0 0
M  V30 7 C 16.6711 -1.7024 0.0 0
M  V30 8 O 14.9498 -2.1636 0.0 0
M  V30 9 C 13.8564 -0.5 0.0 0
M  V30 10 C 12.9903 0.0 0.0 0
M  V30 11 C 12.1243 -0.5 0.0 0
M  V30 12 C 11.2583 0.0 0.0 0
M  V30 13 C 10.3923 -0.5 0.0 0
M  V30 14 O 10.3923 -1.5 0.0 0
M  V30 15 N 9.5262 0.0 0.0 0
M  V30 16 C 8.6602 -0.5 0.0 0 CFG=2
M  V30 17 C 9.5262 1.0 0.0 0
M  V30 18 C 7.7942 0.0 0.0 0
M  V30 19 C 8.6602 -1.5 0.0 0
M  V30 20 O 7.7942 0.9999 0.0 0
M  V30 21 N 6.9282 -0.5 0.0 0
M  V30 22 C 7.7942 -1.9999 0.0 0
M  V30 23 C 9.5262 -2.0 0.0 0
M  V30 24 C 6.0621 0.0 0.0 0 CFG=2
M  V30 25 C 5.1961 -0.5 0.0 0
M  V30 26 C 6.0621 1.0 0.0 0
M  V30 27 O 5.1961 -1.4999 0.0 0
M  V30 28 N 4.3301 0.0 0.0 0
M  V30 29 C 6.9282 1.4999 0.0 0
M  V30 30 C 5.1961 1.5 0.0 0
M  V30 31 C 3.4641 -0.5 0.0 0 CFG=2
M  V30 32 C 4.3301 1.0 0.0 0
M  V30 33 C 2.598 0.0 0.0 0 CFG=2
M  V30 34 C 3.4641 -1.5 0.0 0 CFG=2
M  V30 35 O 2.598 1.0 0.0 0
M  V30 36 C 1.732 -0.5 0.0 0
M  V30 37 C 2.598 -2.0 0.0 0
M  V30 38 C 4.3301 -2.0 0.0 0
M  V30 39 C 1.732 1.5 0.0 0
M  V30 40 C 0.866 0.0 0.0 0
M  V30 41 C 2.598 -3.0 0.0 0
M  V30 42 O 0.866 1.0 0.0 0
M  V30 43 N 0.0 -0.5 0.0 0
M  V30 44 C -0.9135 -0.0932 0.0 0 CFG=2
M  V30 45 C -0.1045 -1.4945 0.0 0
M  V30 46 C -1.1214 0.8848 0.0 0 CFG=2
M  V30 47 C -1.5826 -0.8364 0.0 0
M  V30 48 C -1.0826 -1.7024 0.0 0
M  V30 49 O -0.3783 1.554 0.0 0
M  V30 50 C -2.0725 1.1939 0.0 0 CFG=2
M  V30 51 C -0.5862 2.5321 0.0 0
M  V30 52 C -2.8156 0.5247 0.0 0
M  V30 53 C -2.2804 2.172 0.0 0
M  V30 54 O -2.6077 -0.4533 0.0 0
M  V30 55 N -3.7667 0.8337 0.0 0
M  V30 56 C -4.5098 0.1646 0.0 0 CFG=2
M  V30 57 C -4.3019 -0.8134 0.0 0
M  V30 58 C -5.4609 0.4736 0.0 0
M  V30 59 O -5.045 -1.4826 0.0 0
M  V30 60 O -3.3508 -1.1225 0.0 0 CHG=-1
M  V30 61 C -6.204 -0.1954 0.0 0
M  V30 62 C -7.1551 0.1135 0.0 0
M  V30 63 C -5.9961 -1.1736 0.0 0
M  V30 64 C -7.8982 -0.5555 0.0 0
M  V30 65 C -6.7392 -1.8427 0.0 0
M  V30 66 C -7.6903 -1.5337 0.0 0
M  V30 END ATOM
M  V30 BEGIN BOND
M  V30 1 2 1 2
M  V30 2 1 2 3
M  V30 3 1 2 4
M  V30 4 1 3 5
M  V30 5 1 3 6
M  V30 6 2 4 7
M  V30 7 2 5 8
M  V30 8 1 6 9
M  V30 9 1 9 10
M  V30 10 1 10 11
M  V30 11 1 11 12
M  V30 12 1 12 13
M  V30 13 2 13 14
M  V30 14 1 13 15
M  V30 15 1 16 15 CFG=1
M  V30 16 1 15 17
M  V30 17 1 16 18
M  V30 18 1 16 19
M  V30 19 2 18 20
M  V30 20 1 18 21
M  V30 21 1 19 22
M  V30 22 1 19 23
M  V30 23 1 24 21 CFG=3
M  V30 24 1 24 25
M  V30 25 1 24 26
M  V30 26 2 25 27
M  V30 27 1 25 28
M  V30 28 1 26 29
M  V30 29 1 26 30
M  V30 30 1 31 28 CFG=1
M  V30 31 1 28 32
M  V30 32 1 33 31
M  V30 33 1 34 31
M  V30 34 1 33 35 CFG=1
M  V30 35 1 33 36
M  V30 36 1 34 37
M  V30 37 1 34 38 CFG=1
M  V30 38 1 35 39
M  V30 39 1 36 40
M  V30 40 1 37 41
M  V30 41 2 40 42
M  V30 42 1 40 43
M  V30 43 1 44 43 CFG=1
M  V30 44 1 43 45
M  V30 45 1 46 44
M  V30 46 1 44 47
M  V30 47 1 45 48
M  V30 48 1 46 49 CFG=1
M  V30 49 1 50 46
M  V30 50 1 49 51
M  V30 51 1 50 52
M  V30 52 1 50 53 CFG=3
M  V30 53 2 52 54
M  V30 54 1 52 55
M  V30 55 1 56 55 CFG=3
M  V30 56 1 56 57
M  V30 57 1 56 58
M  V30 58 2 57 59
M  V30 59 1 57 60
M  V30 60 1 58 61
M  V30 61 2 61 62
M  V30 62 1 61 63
M  V30 63 1 62 64
M  V30 64 2 63 65
M  V30 65 2 64 66
M  V30 66 1 5 7
M  V30 67 1 47 48
M  V30 68 1 65 66
M  V30 END BOND
M  V30 BEGIN COLLECTION
M  V30 MDLV30/STERAC1 ATOMS=(9 16 24 31 33 34 44 46 50 56)
M  V30 END COLLECTION
M  V30 END CTAB
M  END
>  <Molecule Name>


>  <status>
-

>  <cas>
863971-19-1

>  <name>
MAFODOTIN

>  <ID>
2027

>  <Smiles>
CC[C@H](C)[C@@H]([C@@H](CC(N(CCC1)[C@@H]1[C@@H]([C@@H](C)C(N[C@@H](Cc1ccccc1)C([O-])=O)=O)OC)=O)OC)N(C)C([C@H](C(C)C)NC([C@H](C(C)C)N(C)C(CCCCCN(C(C=C1)=O)C1=O)=O)=O)=O

$$$$

Actelion Java MolfileCreator 2.0

  0  0  0  0  0  0              0 V3000
M  V30 BEGIN CTAB
M  V30 COUNTS 43 48 0 0 0
M  V30 BEGIN ATOM
M  V30 1 O 9.2195 -3.0984 0.0 0
M  V30 2 C 9.442 -2.1234 0.0 0
M  V30 3 N 10.417 -1.9009 0.0 0
M  V30 4 C 8.6602 -1.5 0.0 0
M  V30 5 C 11.1398 -2.592 0.0 0
M  V30 6 C 10.8508 -1.0 0.0 0 CFG=2
M  V30 7 C 8.6602 -0.5 0.0 0
M  V30 8 C 7.7942 -2.0 0.0 0
M  V30 9 C 12.0204 -2.1181 0.0 0
M  V30 10 C 10.417 -0.099 0.0 0
M  V30 11 C 11.8418 -1.1342 0.0 0
M  V30 12 N 9.442 0.1234 0.0 0
M  V30 13 C 7.7942 0.0 0.0 0
M  V30 14 C 6.9282 -1.5 0.0 0
M  V30 15 C 12.9213 -2.552 0.0 0
M  V30 16 C 6.9282 -0.5 0.0 0
M  V30 17 O 6.0621 -2.0 0.0 0
M  V30 18 O 6.0621 0.0 0.0 0
M  V30 19 C 6.0621 -2.9999 0.0 0
M  V30 20 C 5.1961 -0.5 0.0 0
M  V30 21 C 4.3301 0.0 0.0 0
M  V30 22 C 3.4641 -0.5 0.0 0
M  V30 23 C 2.598 0.0 0.0 0
M  V30 24 C 1.732 -0.5 0.0 0
M  V30 25 O 0.866 0.0 0.0 0
M  V30 26 C 0.0 -0.5 0.0 0
M  V30 27 C 0.0 -1.5 0.0 0
M  V30 28 C -0.866 0.0 0.0 0
M  V30 29 O 0.866 -2.0 0.0 0
M  V30 30 C -0.866 -2.0 0.0 0
M  V30 31 C -1.732 -0.4999 0.0 0
M  V30 32 C 1.732 -1.5 0.0 0
M  V30 33 C -1.732 -1.4999 0.0 0
M  V30 34 N -2.5138 0.1234 0.0 0
M  V30 35 C -2.5138 -2.1234 0.0 0
M  V30 36 C -3.4888 -0.099 0.0 0
M  V30 37 O -2.2913 -3.0984 0.0 0
M  V30 38 N -3.4888 -1.9009 0.0 0
M  V30 39 C -3.9226 -0.9999 0.0 0 CFG=1
M  V30 40 C -4.2116 -2.592 0.0 0
M  V30 41 C -4.9136 -1.1342 0.0 0
M  V30 42 C -5.0922 -2.1181 0.0 0
M  V30 43 C -5.9931 -2.552 0.0 0
M  V30 END ATOM
M  V30 BEGIN BOND
M  V30 1 2 1 2
M  V30 2 1 2 3
M  V30 3 1 2 4
M  V30 4 1 3 5
M  V30 5 1 6 3 CFG=3
M  V30 6 2 4 7
M  V30 7 1 4 8
M  V30 8 2 5 9
M  V30 9 1 6 10
M  V30 10 1 6 11
M  V30 11 1 7 12
M  V30 12 1 7 13
M  V30 13 2 8 14
M  V30 14 1 9 15
M  V30 15 2 13 16
M  V30 16 1 14 17
M  V30 17 1 16 18
M  V30 18 1 17 19
M  V30 19 1 18 20
M  V30 20 1 20 21
M  V30 21 1 21 22
M  V30 22 1 22 23
M  V30 23 1 23 24
M  V30 24 1 24 25
M  V30 25 1 25 26
M  V30 26 2 26 27
M  V30 27 1 26 28
M  V30 28 1 27 29
M  V30 29 1 27 30
M  V30 30 2 28 31
M  V30 31 1 29 32
M  V30 32 2 30 33
M  V30 33 1 31 34
M  V30 34 1 33 35
M  V30 35 2 34 36
M  V30 36 2 35 37
M  V30 37 1 35 38
M  V30 38 1 39 36
M  V30 39 1 38 40
M  V30 40 1 39 41
M  V30 41 2 40 42
M  V30 42 1 42 43
M  V30 43 1 9 11
M  V30 44 2 10 12
M  V30 45 1 14 16
M  V30 46 1 31 33
M  V30 47 1 39 38 CFG=1
M  V30 48 1 41 42
M  V30 END BOND
M  V30 BEGIN COLLECTION
M  V30 MDLV30/STERAC1 ATOMS=(2 6 39)
M  V30 END COLLECTION
M  V30 END CTAB
M  END
>  <Molecule Name>


>  <status>
-

>  <cas>
1595275-71-0

>  <name>
SG3199

>  <ID>
2028

>  <Smiles>
CC(C[C@H]1C=Nc(c2c3)cc(OCCCCCOc(c(OC)c4)cc(N=C[C@H]5N6C=C(C)C5)c4C6=O)c3OC)=CN1C2=O

$$$$

Actelion Java MolfileCreator 2.0

  0  0  0  0  0  0              0 V3000
M  V30 BEGIN CTAB
M  V30 COUNTS 35 39 0 0 0
M  V30 BEGIN ATOM
M  V30 1 O 3.4641 1.5 0.0 0
M  V30 2 C 4.3301 1.0 0.0 0
M  V30 3 C 3.4641 2.5 0.0 0
M  V30 4 C 4.3301 0.0 0.0 0
M  V30 5 C 4.3301 3.0 0.0 0
M  V30 6 C 3.4641 -0.5 0.0 0
M  V30 7 C 5.1961 -0.5 0.0 0
M  V30 8 C 4.3301 4.0 0.0 0
M  V30 9 O 2.598 0.0 0.0 0
M  V30 10 C 3.4641 -1.5 0.0 0
M  V30 11 C 5.1961 -1.5 0.0 0
M  V30 12 C 5.1961 4.4999 0.0 0
M  V30 13 C 1.732 -0.5 0.0 0
M  V30 14 C 4.3301 -2.0 0.0 0
M  V30 15 N 6.0621 -2.0 0.0 0
M  V30 16 O 6.0621 3.9999 0.0 0
M  V30 17 C 0.866 0.0 0.0 0
M  V30 18 C 6.9282 -1.5 0.0 0
M  V30 19 C 6.0621 2.9999 0.0 0
M  V30 20 N 0.0 -0.5 0.0 0
M  V30 21 N 7.7942 -2.0 0.0 0
M  V30 22 N 6.9282 -0.5 0.0 0
M  V30 23 C 6.9282 2.4999 0.0 0
M  V30 24 C -0.9135 -0.0932 0.0 0
M  V30 25 C -0.1045 -1.4945 0.0 0
M  V30 26 C 8.6602 -1.5 0.0 0
M  V30 27 C 7.7942 0.0 0.0 0
M  V30 28 C 6.9282 1.4999 0.0 0
M  V30 29 C 7.7942 2.9999 0.0 0
M  V30 30 C -1.5826 -0.8364 0.0 0
M  V30 31 C -1.0826 -1.7024 0.0 0
M  V30 32 C 8.6602 -0.5 0.0 0
M  V30 33 C 7.7942 0.9999 0.0 0
M  V30 34 C 8.6602 2.4999 0.0 0
M  V30 35 C 8.6602 1.4999 0.0 0
M  V30 END ATOM
M  V30 BEGIN BOND
M  V30 1 1 1 2
M  V30 2 1 1 3
M  V30 3 1 2 4
M  V30 4 1 3 5
M  V30 5 2 4 6
M  V30 6 1 4 7
M  V30 7 2 5 8
M  V30 8 1 6 9
M  V30 9 1 6 10
M  V30 10 2 7 11
M  V30 11 1 8 12
M  V30 12 1 9 13
M  V30 13 2 10 14
M  V30 14 1 11 15
M  V30 15 1 12 16
M  V30 16 1 13 17
M  V30 17 2 15 18
M  V30 18 1 16 19
M  V30 19 1 17 20
M  V30 20 1 18 21
M  V30 21 1 18 22
M  V30 22 1 19 23
M  V30 23 1 20 24
M  V30 24 1 20 25
M  V30 25 2 21 26
M  V30 26 1 22 27
M  V30 27 2 23 28
M  V30 28 1 23 29
M  V30 29 1 24 30
M  V30 30 1 25 31
M  V30 31 1 26 32
M  V30 32 1 27 33
M  V30 33 2 29 34
M  V30 34 2 33 35
M  V30 35 1 11 14
M  V30 36 2 27 32
M  V30 37 1 28 33
M  V30 38 1 30 31
M  V30 39 1 34 35
M  V30 END BOND
M  V30 END CTAB
M  END
>  <Molecule Name>


>  <status>
-

>  <cas>
937272-79-2

>  <name>
PACRITINIB

>  <ID>
2029

>  <Smiles>
C(COc(cc1)c(COC/C=C/COCc2cc3ccc2)cc1/N=C1/N=CC=C3N1)N1CCCC1

$$$$

Actelion Java MolfileCreator 2.0

  0  0  0  0  0  0              0 V3000
M  V30 BEGIN CTAB
M  V30 COUNTS 22 24 0 0 0
M  V30 BEGIN ATOM
M  V30 1 S 3.8971 0.0 0.0 0
M  V30 2 O 4.6471 1.299 0.0 0
M  V30 3 O 3.1471 1.299 0.0 0
M  V30 4 N 5.1961 -0.75 0.0 0
M  V30 5 C 2.598 -0.75 0.0 0
M  V30 6 C 6.4952 0.0 0.0 0 CFG=2
M  V30 7 C 1.299 0.0 0.0 0
M  V30 8 C 7.944 -0.3882 0.0 0
M  V30 9 C 6.8834 1.4488 0.0 0
M  V30 10 C 0.0 -0.75 0.0 0
M  V30 11 C 8.3323 1.0606 0.0 0 CFG=1
M  V30 12 N 9.6313 1.8106 0.0 0
M  V30 13 C 10.9304 1.0606 0.0 0
M  V30 14 C 9.6313 3.3106 0.0 0
M  V30 15 N 10.9304 -0.4393 0.0 0
M  V30 16 C 12.2294 1.8106 0.0 0
M  V30 17 C 12.2294 -1.1893 0.0 0
M  V30 18 C 13.5284 1.0606 0.0 0
M  V30 19 C 12.5413 3.2778 0.0 0
M  V30 20 N 13.5284 -0.4393 0.0 0
M  V30 21 N 14.6432 2.0643 0.0 0
M  V30 22 C 14.033 3.4346 0.0 0
M  V30 END ATOM
M  V30 BEGIN BOND
M  V30 1 2 1 2
M  V30 2 2 1 3
M  V30 3 1 1 4
M  V30 4 1 1 5
M  V30 5 1 6 4 CFG=1
M  V30 6 1 5 7
M  V30 7 1 6 8
M  V30 8 1 6 9
M  V30 9 1 7 10
M  V30 10 1 11 8
M  V30 11 1 11 12 CFG=1
M  V30 12 1 12 13
M  V30 13 1 12 14
M  V30 14 2 13 15
M  V30 15 1 13 16
M  V30 16 1 15 17
M  V30 17 2 16 18
M  V30 18 1 16 19
M  V30 19 2 17 20
M  V30 20 1 18 21
M  V30 21 2 19 22
M  V30 22 1 9 11
M  V30 23 1 18 20
M  V30 24 1 21 22
M  V30 END BOND
M  V30 BEGIN COLLECTION
M  V30 MDLV30/STEABS ATOMS=(2 6 11)
M  V30 END COLLECTION
M  V30 END CTAB
M  END
>  <Molecule Name>


>  <status>
-

>  <cas>
1622902-68-4

>  <name>
ABROCITINIB

>  <ID>
2030

>  <Smiles>
CCCS(N[C@H](C1)C[C@H]1N(C)c1ncnc2c1cc[nH]2)(=O)=O

$$$$

Actelion Java MolfileCreator 2.0

  0  0  0  0  0  0              0 V3000
M  V30 BEGIN CTAB
M  V30 COUNTS 23 25 0 0 0
M  V30 BEGIN ATOM
M  V30 1 S 3.8971 0.0 0.0 0
M  V30 2 O 4.6471 1.299 0.0 0
M  V30 3 O 3.1471 1.299 0.0 0
M  V30 4 N 5.1961 -0.75 0.0 0
M  V30 5 C 2.598 -0.75 0.0 0
M  V30 6 C 6.4952 0.0 0.0 0 CFG=2
M  V30 7 C 1.299 0.0 0.0 0 CFG=1
M  V30 8 C 7.944 -0.3882 0.0 0
M  V30 9 C 6.8834 1.4488 0.0 0
M  V30 10 O 1.299 1.5 0.0 0
M  V30 11 C 0.0 -0.75 0.0 0
M  V30 12 C 8.3323 1.0606 0.0 0 CFG=1
M  V30 13 N 9.6313 1.8106 0.0 0
M  V30 14 C 10.9304 1.0606 0.0 0
M  V30 15 C 9.6313 3.3106 0.0 0
M  V30 16 N 10.9304 -0.4393 0.0 0
M  V30 17 C 12.2294 1.8106 0.0 0
M  V30 18 C 12.2294 -1.1893 0.0 0
M  V30 19 C 13.5284 1.0606 0.0 0
M  V30 20 C 12.5413 3.2778 0.0 0
M  V30 21 N 13.5284 -0.4393 0.0 0
M  V30 22 N 14.6432 2.0643 0.0 0
M  V30 23 C 14.033 3.4346 0.0 0
M  V30 END ATOM
M  V30 BEGIN BOND
M  V30 1 2 1 2
M  V30 2 2 1 3
M  V30 3 1 1 4
M  V30 4 1 1 5
M  V30 5 1 6 4 CFG=1
M  V30 6 1 7 5
M  V30 7 1 6 8
M  V30 8 1 6 9
M  V30 9 1 7 10 CFG=3
M  V30 10 1 7 11
M  V30 11 1 12 8
M  V30 12 1 12 13 CFG=1
M  V30 13 1 13 14
M  V30 14 1 13 15
M  V30 15 2 14 16
M  V30 16 1 14 17
M  V30 17 1 16 18
M  V30 18 2 17 19
M  V30 19 1 17 20
M  V30 20 2 18 21
M  V30 21 1 19 22
M  V30 22 2 20 23
M  V30 23 1 9 12
M  V30 24 1 19 21
M  V30 25 1 22 23
M  V30 END BOND
M  V30 BEGIN COLLECTION
M  V30 MDLV30/STEABS ATOMS=(2 6 12)
M  V30 MDLV30/STERAC1 ATOMS=(1 7)
M  V30 END COLLECTION
M  V30 END CTAB
M  END
>  <Molecule Name>


>  <status>
-

>  <cas>
2744171-53-5

>  <name>
M ABROCITINIB

>  <ID>
2031

>  <Smiles>
CC(CS(N[C@H](C1)C[C@H]1N(C)c1ncnc2c1cc[nH]2)(=O)=O)O

$$$$

Actelion Java MolfileCreator 2.0

  0  0  0  0  0  0              0 V3000
M  V30 BEGIN CTAB
M  V30 COUNTS 23 25 0 0 0
M  V30 BEGIN ATOM
M  V30 1 S 3.8971 0.0 0.0 0
M  V30 2 O 4.6471 1.299 0.0 0
M  V30 3 O 3.1471 1.299 0.0 0
M  V30 4 N 5.1961 -0.75 0.0 0
M  V30 5 C 2.598 -0.75 0.0 0
M  V30 6 C 6.4952 0.0 0.0 0 CFG=2
M  V30 7 C 1.299 0.0 0.0 0 CFG=1
M  V30 8 C 7.944 -0.3882 0.0 0
M  V30 9 C 6.8834 1.4488 0.0 0
M  V30 10 O 1.299 1.5 0.0 0
M  V30 11 C 0.0 -0.75 0.0 0
M  V30 12 C 8.3323 1.0606 0.0 0 CFG=1
M  V30 13 N 9.6313 1.8106 0.0 0
M  V30 14 C 10.9304 1.0606 0.0 0
M  V30 15 C 9.6313 3.3106 0.0 0
M  V30 16 N 10.9304 -0.4393 0.0 0
M  V30 17 C 12.2294 1.8106 0.0 0
M  V30 18 C 12.2294 -1.1893 0.0 0
M  V30 19 C 13.5284 1.0606 0.0 0
M  V30 20 C 12.5413 3.2778 0.0 0
M  V30 21 N 13.5284 -0.4393 0.0 0
M  V30 22 N 14.6432 2.0643 0.0 0
M  V30 23 C 14.033 3.4346 0.0 0
M  V30 END ATOM
M  V30 BEGIN BOND
M  V30 1 2 1 2
M  V30 2 2 1 3
M  V30 3 1 1 4
M  V30 4 1 1 5
M  V30 5 1 6 4 CFG=1
M  V30 6 1 7 5
M  V30 7 1 6 8
M  V30 8 1 6 9
M  V30 9 1 7 10 CFG=3
M  V30 10 1 7 11
M  V30 11 1 12 8
M  V30 12 1 12 13 CFG=1
M  V30 13 1 13 14
M  V30 14 1 13 15
M  V30 15 2 14 16
M  V30 16 1 14 17
M  V30 17 1 16 18
M  V30 18 2 17 19
M  V30 19 1 17 20
M  V30 20 2 18 21
M  V30 21 1 19 22
M  V30 22 2 20 23
M  V30 23 1 9 12
M  V30 24 1 19 21
M  V30 25 1 22 23
M  V30 END BOND
M  V30 BEGIN COLLECTION
M  V30 MDLV30/STEABS ATOMS=(2 6 12)
M  V30 MDLV30/STERAC1 ATOMS=(1 7)
M  V30 END COLLECTION
M  V30 END CTAB
M  END
>  <Molecule Name>


>  <status>
-

>  <cas>
2744171-52-4

>  <name>
M ABROCITINIB

>  <ID>
2032

>  <Smiles>
CC(CS(N[C@H](C1)C[C@H]1N(C)c1ncnc2c1cc[nH]2)(=O)=O)O

$$$$

Actelion Java MolfileCreator 2.0

  0  0  0  0  0  0              0 V3000
M  V30 BEGIN CTAB
M  V30 COUNTS 36 40 0 0 0
M  V30 BEGIN ATOM
M  V30 1 Cl 1.7053 0.8895 0.0 0
M  V30 2 C 2.0637 1.8231 0.0 0
M  V30 3 C 3.0514 1.9795 0.0 0
M  V30 4 C 1.4344 2.6002 0.0 0
M  V30 5 C 3.4097 2.9131 0.0 0
M  V30 6 C 3.6807 1.2024 0.0 0 CFG=2
M  V30 7 C 1.7927 3.5338 0.0 0
M  V30 8 C 2.7804 3.6903 0.0 0
M  V30 9 O 2.7026 0.9945 0.0 0
M  V30 10 O 4.1807 0.3364 0.0 0
M  V30 11 C 4.0874 2.1159 0.0 0
M  V30 12 Cl 1.1634 4.311 0.0 0
M  V30 13 C 2.598 0.0 0.0 0 CFG=2
M  V30 14 C 3.5116 -0.4067 0.0 0
M  V30 15 N 5.082 2.2205 0.0 0
M  V30 16 C 1.732 -0.5 0.0 0
M  V30 17 C 5.7511 1.4773 0.0 0
M  V30 18 C 5.582 3.0865 0.0 0
M  V30 19 O 0.866 0.0 0.0 0
M  V30 20 N 6.6646 1.884 0.0 0
M  V30 21 C 6.5601 2.8786 0.0 0
M  V30 22 C 0.0 -0.5 0.0 0
M  V30 23 C -0.866 0.0 0.0 0
M  V30 24 C 0.0 -1.4999 0.0 0
M  V30 25 C -1.732 -0.4999 0.0 0
M  V30 26 C -0.866 -1.9999 0.0 0
M  V30 27 C -1.732 -1.4999 0.0 0
M  V30 28 N -2.598 -1.9999 0.0 0
M  V30 29 C -3.4641 -1.4999 0.0 0
M  V30 30 C -2.598 -2.9999 0.0 0
M  V30 31 C -4.3301 -1.9999 0.0 0
M  V30 32 C -3.4641 -3.4999 0.0 0
M  V30 33 N -4.3301 -2.9999 0.0 0
M  V30 34 C -5.1961 -3.4999 0.0 0
M  V30 35 O -6.0621 -2.9999 0.0 0
M  V30 36 C -5.1961 -4.4999 0.0 0
M  V30 END ATOM
M  V30 BEGIN BOND
M  V30 1 1 1 2
M  V30 2 2 2 3
M  V30 3 1 2 4
M  V30 4 1 3 5
M  V30 5 1 6 3
M  V30 6 2 4 7
M  V30 7 2 5 8
M  V30 8 1 6 9
M  V30 9 1 6 10
M  V30 10 1 6 11 CFG=3
M  V30 11 1 7 12
M  V30 12 1 13 9
M  V30 13 1 10 14
M  V30 14 1 11 15
M  V30 15 1 13 16 CFG=3
M  V30 16 1 15 17
M  V30 17 1 15 18
M  V30 18 1 16 19
M  V30 19 2 17 20
M  V30 20 2 18 21
M  V30 21 1 19 22
M  V30 22 2 22 23
M  V30 23 1 22 24
M  V30 24 1 23 25
M  V30 25 2 24 26
M  V30 26 2 25 27
M  V30 27 1 27 28
M  V30 28 1 28 29
M  V30 29 1 28 30
M  V30 30 1 29 31
M  V30 31 1 30 32
M  V30 32 1 31 33
M  V30 33 1 33 34
M  V30 34 2 34 35
M  V30 35 1 34 36
M  V30 36 1 7 8
M  V30 37 1 13 14
M  V30 38 1 20 21
M  V30 39 1 26 27
M  V30 40 1 32 33
M  V30 END BOND
M  V30 BEGIN COLLECTION
M  V30 MDLV30/STERAC1 ATOMS=(2 6 13)
M  V30 END COLLECTION
M  V30 END CTAB
M  END
>  <Molecule Name>


>  <status>
-

>  <cas>
142128-57-2

>  <name>
LEVOKETOCONAZOLE

>  <ID>
2033

>  <Smiles>
CC(N(CC1)CCN1c(cc1)ccc1OC[C@@H]1O[C@@](Cn2cncc2)(c(ccc(Cl)c2)c2Cl)OC1)=O

$$$$

Actelion Java MolfileCreator 2.0

  0  0  0  0  0  0              0 V3000
M  V30 BEGIN CTAB
M  V30 COUNTS 19 20 0 0 0
M  V30 BEGIN ATOM
M  V30 1 S 5.1961 1.5 0.0 0
M  V30 2 C 4.3301 1.0 0.0 0
M  V30 3 C 5.1961 2.5 0.0 0
M  V30 4 C 3.4641 1.5 0.0 0
M  V30 5 C 4.3301 0.0 0.0 0
M  V30 6 C 2.598 0.9999 0.0 0
M  V30 7 C 3.4641 -0.4999 0.0 0
M  V30 8 C 2.598 0.0 0.0 0
M  V30 9 O 1.732 -0.5 0.0 0
M  V30 10 C 0.866 0.0 0.0 0
M  V30 11 C 0.0 -0.5 0.0 0
M  V30 12 N -0.9135 -0.0932 0.0 0
M  V30 13 N -0.1045 -1.4945 0.0 0
M  V30 14 C -1.5826 -0.8364 0.0 0
M  V30 15 C -1.0826 -1.7024 0.0 0
M  V30 16 C 0.6386 -2.1636 0.0 0
M  V30 17 N -1.4894 -2.6159 0.0 0 CHG=1
M  V30 18 O -2.4839 -2.7205 0.0 0
M  V30 19 O -0.9016 -3.4249 0.0 0 CHG=-1
M  V30 END ATOM
M  V30 BEGIN BOND
M  V30 1 1 1 2
M  V30 2 1 1 3
M  V30 3 2 2 4
M  V30 4 1 2 5
M  V30 5 1 4 6
M  V30 6 2 5 7
M  V30 7 2 6 8
M  V30 8 1 8 9
M  V30 9 1 9 10
M  V30 10 1 10 11
M  V30 11 2 11 12
M  V30 12 1 11 13
M  V30 13 1 12 14
M  V30 14 1 13 15
M  V30 15 1 13 16
M  V30 16 1 15 17
M  V30 17 2 17 18
M  V30 18 1 17 19
M  V30 19 1 7 8
M  V30 20 2 14 15
M  V30 END BOND
M  V30 END CTAB
M  END
>  <Molecule Name>


>  <status>
-

>  <cas>
59729-37-2

>  <name>
FEXINIDAZOLE

>  <ID>
2034

>  <Smiles>
Cn1c([N+]([O-])=O)cnc1COc(cc1)ccc1SC

$$$$

Actelion Java MolfileCreator 2.0

  0  0  0  0  0  0              0 V3000
M  V30 BEGIN CTAB
M  V30 COUNTS 20 21 0 0 0
M  V30 BEGIN ATOM
M  V30 1 S 5.1961 1.5 0.0 0 CFG=2
M  V30 2 O 5.1961 2.5 0.0 0
M  V30 3 C 4.3301 1.0 0.0 0
M  V30 4 C 6.0621 1.0 0.0 0
M  V30 5 C 3.4641 1.5 0.0 0
M  V30 6 C 4.3301 0.0 0.0 0
M  V30 7 C 2.598 0.9999 0.0 0
M  V30 8 C 3.4641 -0.4999 0.0 0
M  V30 9 C 2.598 0.0 0.0 0
M  V30 10 O 1.732 -0.5 0.0 0
M  V30 11 C 0.866 0.0 0.0 0
M  V30 12 C 0.0 -0.5 0.0 0
M  V30 13 N -0.9135 -0.0932 0.0 0
M  V30 14 N -0.1045 -1.4945 0.0 0
M  V30 15 C -1.5826 -0.8364 0.0 0
M  V30 16 C -1.0826 -1.7024 0.0 0
M  V30 17 C 0.6386 -2.1636 0.0 0
M  V30 18 N -1.4894 -2.6159 0.0 0 CHG=1
M  V30 19 O -2.4839 -2.7205 0.0 0
M  V30 20 O -0.9016 -3.4249 0.0 0 CHG=-1
M  V30 END ATOM
M  V30 BEGIN BOND
M  V30 1 2 1 2
M  V30 2 1 1 3
M  V30 3 1 1 4 CFG=1
M  V30 4 2 3 5
M  V30 5 1 3 6
M  V30 6 1 5 7
M  V30 7 2 6 8
M  V30 8 2 7 9
M  V30 9 1 9 10
M  V30 10 1 10 11
M  V30 11 1 11 12
M  V30 12 2 12 13
M  V30 13 1 12 14
M  V30 14 1 13 15
M  V30 15 1 14 16
M  V30 16 1 14 17
M  V30 17 1 16 18
M  V30 18 2 18 19
M  V30 19 1 18 20
M  V30 20 1 8 9
M  V30 21 2 15 16
M  V30 END BOND
M  V30 BEGIN COLLECTION
M  V30 MDLV30/STERAC1 ATOMS=(1 1)
M  V30 END COLLECTION
M  V30 END CTAB
M  END
>  <Molecule Name>


>  <status>
-

>  <cas>
62351-99-9

>  <name>
M FEXINIDAZOLE

>  <ID>
2035

>  <Smiles>
Cn1c([N+]([O-])=O)cnc1COc(cc1)ccc1S(C)=O

$$$$

Actelion Java MolfileCreator 2.0

  0  0  0  0  0  0              0 V3000
M  V30 BEGIN CTAB
M  V30 COUNTS 21 22 0 0 0
M  V30 BEGIN ATOM
M  V30 1 S 5.1961 1.5 0.0 0
M  V30 2 O 5.6961 0.6339 0.0 0
M  V30 3 O 4.6961 2.366 0.0 0
M  V30 4 C 4.3301 1.0 0.0 0
M  V30 5 C 6.0621 2.0 0.0 0
M  V30 6 C 3.4641 1.5 0.0 0
M  V30 7 C 4.3301 0.0 0.0 0
M  V30 8 C 2.598 0.9999 0.0 0
M  V30 9 C 3.4641 -0.4999 0.0 0
M  V30 10 C 2.598 0.0 0.0 0
M  V30 11 O 1.732 -0.5 0.0 0
M  V30 12 C 0.866 0.0 0.0 0
M  V30 13 C 0.0 -0.5 0.0 0
M  V30 14 N -0.9135 -0.0932 0.0 0
M  V30 15 N -0.1045 -1.4945 0.0 0
M  V30 16 C -1.5826 -0.8364 0.0 0
M  V30 17 C -1.0826 -1.7024 0.0 0
M  V30 18 C 0.6386 -2.1636 0.0 0
M  V30 19 N -1.4894 -2.6159 0.0 0 CHG=1
M  V30 20 O -2.4839 -2.7205 0.0 0
M  V30 21 O -0.9016 -3.4249 0.0 0 CHG=-1
M  V30 END ATOM
M  V30 BEGIN BOND
M  V30 1 2 1 2
M  V30 2 2 1 3
M  V30 3 1 1 4
M  V30 4 1 1 5
M  V30 5 2 4 6
M  V30 6 1 4 7
M  V30 7 1 6 8
M  V30 8 2 7 9
M  V30 9 2 8 10
M  V30 10 1 10 11
M  V30 11 1 11 12
M  V30 12 1 12 13
M  V30 13 2 13 14
M  V30 14 1 13 15
M  V30 15 1 14 16
M  V30 16 1 15 17
M  V30 17 1 15 18
M  V30 18 1 17 19
M  V30 19 2 19 20
M  V30 20 1 19 21
M  V30 21 1 9 10
M  V30 22 2 16 17
M  V30 END BOND
M  V30 END CTAB
M  END
>  <Molecule Name>


>  <status>
-

>  <cas>
64570-18-9

>  <name>
M FEXINIDAZOLE

>  <ID>
2036

>  <Smiles>
Cn1c([N+]([O-])=O)cnc1COc(cc1)ccc1S(C)(=O)=O

$$$$

Actelion Java MolfileCreator 2.0

  0  0  0  0  0  0              0 V3000
M  V30 BEGIN CTAB
M  V30 COUNTS 42 46 0 0 0
M  V30 BEGIN ATOM
M  V30 1 F 3.4641 4.5 0.0 0
M  V30 2 C 4.3301 4.0 0.0 0
M  V30 3 C 4.3301 3.0 0.0 0
M  V30 4 C 5.1961 4.5 0.0 0
M  V30 5 C 5.1961 2.5 0.0 0
M  V30 6 C 3.4641 2.5 0.0 0
M  V30 7 C 6.0621 4.0 0.0 0
M  V30 8 C 6.0621 3.0 0.0 0
M  V30 9 C 5.1961 1.5 0.0 0
M  V30 10 O 2.598 3.0 0.0 0
M  V30 11 N 3.4641 1.5 0.0 0
M  V30 12 C 2.598 1.0 0.0 0 CFG=2
M  V30 13 C 4.3301 1.0 0.0 0
M  V30 14 C 1.732 1.5 0.0 0
M  V30 15 C 2.598 0.0 0.0 0 CFG=2
M  V30 16 C 4.3301 0.0 0.0 0
M  V30 17 C 1.732 2.4999 0.0 0
M  V30 18 C 0.866 0.9999 0.0 0
M  V30 19 C 1.732 -0.5 0.0 0
M  V30 20 C 3.4641 -0.4999 0.0 0
M  V30 21 C 0.866 2.9999 0.0 0
M  V30 22 C 0.0 1.4999 0.0 0
M  V30 23 O 0.866 0.0 0.0 0
M  V30 24 N 1.732 -1.5 0.0 0
M  V30 25 C 0.0 2.4999 0.0 0
M  V30 26 C 0.866 -2.0 0.0 0
M  V30 27 N -0.866 2.9999 0.0 0
M  V30 28 C 0.866 -3.0 0.0 0
M  V30 29 C 0.0 -1.5 0.0 0
M  V30 30 C -1.732 2.4999 0.0 0
M  V30 31 C 0.0 -3.5 0.0 0
M  V30 32 C -0.866 -2.0 0.0 0
M  V30 33 C -2.6455 2.9067 0.0 0
M  V30 34 C -1.8365 1.5054 0.0 0
M  V30 35 C -0.866 -3.0 0.0 0
M  V30 36 C 0.0 -4.5 0.0 0
M  V30 37 C -3.3147 2.1635 0.0 0
M  V30 38 C -2.8147 1.2975 0.0 0
M  V30 39 C -1.732 -3.5 0.0 0
M  V30 40 F -0.9999 -4.5 0.0 0
M  V30 41 F 0.0 -5.5 0.0 0
M  V30 42 F 1.0 -4.5 0.0 0
M  V30 END ATOM
M  V30 BEGIN BOND
M  V30 1 1 1 2
M  V30 2 2 2 3
M  V30 3 1 2 4
M  V30 4 1 3 5
M  V30 5 1 3 6
M  V30 6 2 4 7
M  V30 7 2 5 8
M  V30 8 1 5 9
M  V30 9 2 6 10
M  V30 10 1 6 11
M  V30 11 1 12 11
M  V30 12 1 11 13
M  V30 13 1 12 14 CFG=1
M  V30 14 1 15 12
M  V30 15 1 13 16
M  V30 16 2 14 17
M  V30 17 1 14 18
M  V30 18 1 15 19 CFG=1
M  V30 19 1 15 20
M  V30 20 1 17 21
M  V30 21 2 18 22
M  V30 22 2 19 23
M  V30 23 1 19 24
M  V30 24 2 21 25
M  V30 25 1 24 26
M  V30 26 1 25 27
M  V30 27 2 26 28
M  V30 28 1 26 29
M  V30 29 1 27 30
M  V30 30 1 28 31
M  V30 31 2 29 32
M  V30 32 1 30 33
M  V30 33 1 30 34
M  V30 34 2 31 35
M  V30 35 1 31 36
M  V30 36 1 33 37
M  V30 37 1 34 38
M  V30 38 1 35 39
M  V30 39 1 36 40
M  V30 40 1 36 41
M  V30 41 1 36 42
M  V30 42 1 7 8
M  V30 43 1 16 20
M  V30 44 1 22 25
M  V30 45 1 32 35
M  V30 46 1 37 38
M  V30 END BOND
M  V30 BEGIN COLLECTION
M  V30 MDLV30/STERAC1 ATOMS=(2 12 15)
M  V30 END COLLECTION
M  V30 END CTAB
M  END
>  <Molecule Name>


>  <status>
-

>  <cas>
1346623-17-3

>  <name>
AVACOPAN

>  <ID>
2037

>  <Smiles>
Cc(cc1)c(C(F)(F)F)cc1NC([C@H](CCC1)[C@@H](c(cc2)ccc2NC2CCCC2)N1C(c(c(C)ccc1)c1F)=O)=O

$$$$

Actelion Java MolfileCreator 2.0

  0  0  0  0  0  0              0 V3000
M  V30 BEGIN CTAB
M  V30 COUNTS 48 53 0 0 0
M  V30 BEGIN ATOM
M  V30 1 S -0.6583 -2.1773 0.0 0
M  V30 2 O -0.8808 -3.1522 0.0 0
M  V30 3 O 0.0747 -2.8575 0.0 0
M  V30 4 C -1.6471 -2.0283 0.0 0
M  V30 5 C 0.0747 -1.4972 0.0 0
M  V30 6 C -2.1471 -1.1623 0.0 0
M  V30 7 C -2.1471 -2.8943 0.0 0
M  V30 8 C 0.0 -0.5 0.0 0
M  V30 9 C -3.1471 -1.1623 0.0 0
M  V30 10 C -1.7818 -0.2314 0.0 0 CFG=1
M  V30 11 C -3.1471 -2.8943 0.0 0
M  V30 12 C -0.8262 0.0633 0.0 0 CFG=2
M  V30 13 C 0.866 0.0 0.0 0
M  V30 14 C 0.8841 -0.9672 0.0 0
M  V30 15 C -3.6471 -2.0283 0.0 0
M  V30 16 C -2.4619 0.5016 0.0 0
M  V30 17 O -0.6771 1.0521 0.0 0
M  V30 18 C 0.866 0.9999 0.0 0
M  V30 19 C 1.7308 -0.4352 0.0 0
M  V30 20 N -4.6471 -2.0283 0.0 0
M  V30 21 C -2.1672 1.4571 0.0 0
M  V30 22 C -3.4369 0.279 0.0 0
M  V30 23 C 1.732 1.4999 0.0 0
M  V30 24 C 2.6149 -0.9025 0.0 0
M  V30 25 C -5.1471 -1.1623 0.0 0
M  V30 26 C -5.1471 -2.8943 0.0 0
M  V30 27 C -2.8474 2.1902 0.0 0
M  V30 28 C -4.117 1.0121 0.0 0
M  V30 29 C 1.732 2.4999 0.0 0
M  V30 30 C 3.4616 -0.3704 0.0 0
M  V30 31 C -3.8223 1.9677 0.0 0
M  V30 32 O -4.5025 2.7007 0.0 0
M  V30 33 C -4.2077 3.6563 0.0 0
M  V30 34 C -4.8879 4.3893 0.0 0
M  V30 35 C -4.5931 5.3449 0.0 0
M  V30 36 C -5.8628 4.1668 0.0 0
M  V30 37 C -5.2733 6.078 0.0 0
M  V30 38 C -6.543 4.8999 0.0 0
M  V30 39 C -6.2482 5.8555 0.0 0
M  V30 40 C -6.9284 6.5885 0.0 0
M  V30 41 N -7.9033 6.366 0.0 0 CHG=1
M  V30 42 C -8.4898 7.1759 0.0 0
M  V30 43 C -8.4394 5.4761 0.0 0
M  V30 44 C -8.2224 4.5917 0.0 0
M  V30 45 C -9.4845 7.073 0.0 0
M  V30 46 C -9.1858 5.3988 0.0 0
M  V30 47 C -9.2171 4.4887 0.0 0
M  V30 48 N -9.8927 6.1601 0.0 0
M  V30 END ATOM
M  V30 BEGIN BOND
M  V30 1 2 1 2
M  V30 2 2 1 3
M  V30 3 1 1 4
M  V30 4 1 1 5
M  V30 5 2 4 6
M  V30 6 1 4 7
M  V30 7 1 5 8
M  V30 8 1 6 9
M  V30 9 1 10 6
M  V30 10 2 7 11
M  V30 11 1 12 8
M  V30 12 1 8 13
M  V30 13 1 8 14
M  V30 14 2 9 15
M  V30 15 1 10 16 CFG=3
M  V30 16 1 12 17 CFG=3
M  V30 17 1 13 18
M  V30 18 1 14 19
M  V30 19 1 15 20
M  V30 20 2 16 21
M  V30 21 1 16 22
M  V30 22 1 18 23
M  V30 23 1 19 24
M  V30 24 1 20 25
M  V30 25 1 20 26
M  V30 26 1 21 27
M  V30 27 2 22 28
M  V30 28 1 23 29
M  V30 29 1 24 30
M  V30 30 2 27 31
M  V30 31 1 31 32
M  V30 32 1 32 33
M  V30 33 1 33 34
M  V30 34 2 34 35
M  V30 35 1 34 36
M  V30 36 1 35 37
M  V30 37 2 36 38
M  V30 38 2 37 39
M  V30 39 1 39 40
M  V30 40 1 40 41
M  V30 41 1 41 42
M  V30 42 1 41 43
M  V30 43 1 41 44
M  V30 44 1 42 45
M  V30 45 1 43 46
M  V30 46 1 44 47
M  V30 47 1 45 48
M  V30 48 1 10 12
M  V30 49 1 11 15
M  V30 50 1 28 31
M  V30 51 1 38 39
M  V30 52 1 46 48
M  V30 53 1 47 48
M  V30 END BOND
M  V30 BEGIN COLLECTION
M  V30 MDLV30/STERAC1 ATOMS=(2 10 12)
M  V30 END COLLECTION
M  V30 END CTAB
M  END
>  <Molecule Name>


>  <status>
-

>  <cas>
716313-53-0

>  <name>
MARALIXIBAT

>  <ID>
2038

>  <Smiles>
CCCCC(CCCC)(CS(c(cc1)c([C@@H]2c(cc3)ccc3OCc3ccc(C[N+]4(CC5)CCN5CC4)cc3)cc1N(C)C)(=O)=O)[C@H]2O

$$$$

Actelion Java MolfileCreator 2.0

  0  0  0  0  0  0              0 V3000
M  V30 BEGIN CTAB
M  V30 COUNTS 34 38 0 0 0
M  V30 BEGIN ATOM
M  V30 1 O 2.598 1.0 0.0 0
M  V30 2 C 2.598 0.0 0.0 0
M  V30 3 N 3.4641 -0.5 0.0 0
M  V30 4 C 1.732 -0.5 0.0 0
M  V30 5 C 4.3301 0.0 0.0 0
M  V30 6 O 0.866 0.0 0.0 0
M  V30 7 C 5.1961 -0.5 0.0 0
M  V30 8 C 4.3301 1.0 0.0 0
M  V30 9 C 0.0 -0.5 0.0 0
M  V30 10 C -0.866 0.0 0.0 0
M  V30 11 C 0.0 -1.4999 0.0 0
M  V30 12 C -1.732 -0.4999 0.0 0
M  V30 13 C -0.866 -1.9999 0.0 0
M  V30 14 C -2.598 0.0 0.0 0
M  V30 15 C -1.732 -1.4999 0.0 0
M  V30 16 N -2.598 1.0 0.0 0
M  V30 17 N -3.4641 -0.4999 0.0 0
M  V30 18 C -3.4641 1.5 0.0 0
M  V30 19 C -4.3301 0.0 0.0 0
M  V30 20 N -3.4641 2.5 0.0 0
M  V30 21 C -4.3301 1.0 0.0 0
M  V30 22 C -5.1961 -0.4999 0.0 0
M  V30 23 C -4.3301 3.0 0.0 0
M  V30 24 C -5.1961 1.5 0.0 0
M  V30 25 C -6.0621 0.0 0.0 0
M  V30 26 C -5.1961 2.5 0.0 0
M  V30 27 C -4.3301 4.0 0.0 0
M  V30 28 C -6.0621 1.0 0.0 0
M  V30 29 C -6.0621 3.0 0.0 0
M  V30 30 C -5.1961 4.5 0.0 0
M  V30 31 C -6.0621 4.0 0.0 0
M  V30 32 C -7.0132 2.6909 0.0 0
M  V30 33 N -7.0132 4.309 0.0 0
M  V30 34 N -7.601 3.5 0.0 0
M  V30 END ATOM
M  V30 BEGIN BOND
M  V30 1 2 1 2
M  V30 2 1 2 3
M  V30 3 1 2 4
M  V30 4 1 3 5
M  V30 5 1 4 6
M  V30 6 1 5 7
M  V30 7 1 5 8
M  V30 8 1 6 9
M  V30 9 2 9 10
M  V30 10 1 9 11
M  V30 11 1 10 12
M  V30 12 2 11 13
M  V30 13 1 12 14
M  V30 14 2 12 15
M  V30 15 1 14 16
M  V30 16 2 14 17
M  V30 17 2 16 18
M  V30 18 1 17 19
M  V30 19 1 18 20
M  V30 20 1 18 21
M  V30 21 2 19 22
M  V30 22 1 20 23
M  V30 23 2 21 24
M  V30 24 1 22 25
M  V30 25 2 23 26
M  V30 26 1 23 27
M  V30 27 1 24 28
M  V30 28 1 26 29
M  V30 29 2 27 30
M  V30 30 2 29 31
M  V30 31 1 29 32
M  V30 32 1 31 33
M  V30 33 2 32 34
M  V30 34 1 13 15
M  V30 35 1 19 21
M  V30 36 2 25 28
M  V30 37 1 30 31
M  V30 38 1 33 34
M  V30 END BOND
M  V30 END CTAB
M  END
>  <Molecule Name>


>  <status>
-

>  <cas>
911417-87-3

>  <name>
BELUMOSUDIL

>  <ID>
2039

>  <Smiles>
CC(C)NC(COc1cc(-c2nc3ccccc3c(Nc(cc3)cc4c3[nH]nc4)n2)ccc1)=O

$$$$

Actelion Java MolfileCreator 2.0

  0  0  0  0  0  0              0 V3000
M  V30 BEGIN CTAB
M  V30 COUNTS 49 51 0 0 0
M  V30 BEGIN ATOM
M  V30 1 O 20.7846 3.7499 0.0 0
M  V30 2 C 19.4855 4.4999 0.0 0
M  V30 3 O 19.4855 5.9999 0.0 0 CHG=-1
M  V30 4 C 18.1865 3.7499 0.0 0
M  V30 5 N 19.4855 2.9999 0.0 0
M  V30 6 C 16.8874 4.4999 0.0 0
M  V30 7 C 18.1865 2.2499 0.0 0
M  V30 8 C 15.5884 3.7499 0.0 0
M  V30 9 C 16.8874 1.4999 0.0 0
M  V30 10 N 15.5884 2.2499 0.0 0
M  V30 11 C 14.2894 1.5 0.0 0
M  V30 12 O 12.9903 2.25 0.0 0
M  V30 13 C 14.2894 0.0 0.0 0 CFG=1
M  V30 14 N 12.9903 -0.75 0.0 0
M  V30 15 C 15.5884 -0.75 0.0 0
M  V30 16 C 11.6913 0.0 0.0 0
M  V30 17 C 16.8874 0.0 0.0 0
M  V30 18 O 11.6913 1.4999 0.0 0
M  V30 19 C 10.3923 -0.75 0.0 0 CFG=1
M  V30 20 C 18.1865 -0.75 0.0 0
M  V30 21 N 9.0932 0.0 0.0 0
M  V30 22 C 10.3923 -2.25 0.0 0
M  V30 23 C 19.4855 0.0 0.0 0
M  V30 24 C 7.7942 -0.75 0.0 0
M  V30 25 C 11.6913 -3.0 0.0 0
M  V30 26 N 20.7846 -0.75 0.0 0
M  V30 27 O 7.7942 -2.25 0.0 0
M  V30 28 C 6.4951 0.0 0.0 0 CFG=1
M  V30 29 C 12.9903 -2.2499 0.0 0
M  V30 30 C 11.6913 -4.5 0.0 0
M  V30 31 N 5.1961 -0.75 0.0 0
M  V30 32 C 6.4951 1.5 0.0 0
M  V30 33 C 5.1961 -2.25 0.0 0
M  V30 34 C 5.1961 2.25 0.0 0
M  V30 35 O 6.4951 -3.0 0.0 0
M  V30 36 C 3.8971 -2.9999 0.0 0 CFG=1
M  V30 37 C 5.1961 3.75 0.0 0
M  V30 38 C 3.8971 1.5 0.0 0
M  V30 39 N 2.598 -2.2499 0.0 0
M  V30 40 C 3.8971 -4.5 0.0 0
M  V30 41 C 3.8971 4.5 0.0 0
M  V30 42 C 2.598 2.25 0.0 0
M  V30 43 C 2.598 -5.25 0.0 0
M  V30 44 C 2.598 3.75 0.0 0
M  V30 45 C 2.598 -6.75 0.0 0
M  V30 46 C 1.299 -4.5 0.0 0
M  V30 47 C 1.299 -7.5 0.0 0
M  V30 48 C 0.0 -5.25 0.0 0
M  V30 49 C 0.0 -6.75 0.0 0
M  V30 END ATOM
M  V30 BEGIN BOND
M  V30 1 2 1 2
M  V30 2 1 2 3
M  V30 3 1 2 4
M  V30 4 1 4 5
M  V30 5 1 4 6
M  V30 6 1 4 7
M  V30 7 1 6 8
M  V30 8 1 7 9
M  V30 9 1 8 10
M  V30 10 1 10 11
M  V30 11 2 11 12
M  V30 12 1 13 11
M  V30 13 1 13 14 CFG=3
M  V30 14 1 13 15
M  V30 15 1 14 16
M  V30 16 1 15 17
M  V30 17 2 16 18
M  V30 18 1 19 16
M  V30 19 1 17 20
M  V30 20 1 19 21 CFG=3
M  V30 21 1 19 22
M  V30 22 1 20 23
M  V30 23 1 21 24
M  V30 24 1 22 25
M  V30 25 1 23 26
M  V30 26 2 24 27
M  V30 27 1 28 24
M  V30 28 1 25 29
M  V30 29 1 25 30
M  V30 30 1 28 31 CFG=1
M  V30 31 1 28 32
M  V30 32 1 31 33
M  V30 33 1 32 34
M  V30 34 2 33 35
M  V30 35 1 36 33
M  V30 36 2 34 37
M  V30 37 1 34 38
M  V30 38 1 36 39 CFG=3
M  V30 39 1 36 40
M  V30 40 1 37 41
M  V30 41 2 38 42
M  V30 42 1 40 43
M  V30 43 2 41 44
M  V30 44 2 43 45
M  V30 45 1 43 46
M  V30 46 1 45 47
M  V30 47 2 46 48
M  V30 48 2 47 49
M  V30 49 1 9 10
M  V30 50 1 42 44
M  V30 51 1 48 49
M  V30 END BOND
M  V30 BEGIN COLLECTION
M  V30 MDLV30/STERAC1 ATOMS=(4 13 19 28 36)
M  V30 END COLLECTION
M  V30 END CTAB
M  END
>  <Molecule Name>


>  <status>
-

>  <cas>
1024828-77-0

>  <name>
DIFELIKEFALIN

>  <ID>
2040

>  <Smiles>
CC(C)C[C@@H](C(N[C@@H](CCCCN)C(N(CC1)CCC1(C([O-])=O)N)=O)=O)NC([C@H](Cc1ccccc1)NC([C@H](Cc1ccccc1)N)=O)=O

$$$$

Actelion Java MolfileCreator 2.0

  0  0  0  0  0  0              0 V3000
M  V30 BEGIN CTAB
M  V30 COUNTS 32 36 0 0 0
M  V30 BEGIN ATOM
M  V30 1 Cl 2.7354 5.1393 0.0 0
M  V30 2 C 3.0444 4.1882 0.0 0
M  V30 3 C 2.3753 3.4451 0.0 0
M  V30 4 C 4.0226 3.9803 0.0 0
M  V30 5 C 2.6843 2.494 0.0 0
M  V30 6 C 1.3972 3.653 0.0 0
M  V30 7 C 4.3316 3.0292 0.0 0
M  V30 8 N 2.1843 1.628 0.0 0
M  V30 9 C 3.6625 2.2861 0.0 0
M  V30 10 C 2.8535 0.8848 0.0 0
M  V30 11 N 3.767 1.2916 0.0 0
M  V30 12 C 2.6455 -0.0932 0.0 0 CFG=1
M  V30 13 N 1.732 -0.5 0.0 0
M  V30 14 C 3.3147 -0.8364 0.0 0
M  V30 15 C 3.6115 0.1655 0.0 0
M  V30 16 C 0.866 0.0 0.0 0
M  V30 17 C 1.8365 -1.4945 0.0 0
M  V30 18 C 2.8147 -1.7024 0.0 0
M  V30 19 O 0.866 1.0 0.0 0
M  V30 20 C 0.0 -0.5 0.0 0
M  V30 21 C -0.866 0.0 0.0 0
M  V30 22 C 0.0 -1.4999 0.0 0
M  V30 23 N -0.866 1.0 0.0 0
M  V30 24 C -1.732 -0.4999 0.0 0
M  V30 25 C -0.866 -1.9999 0.0 0
M  V30 26 N -0.057 1.5877 0.0 0
M  V30 27 N -1.675 1.5877 0.0 0
M  V30 28 C -1.732 -1.4999 0.0 0
M  V30 29 O -0.866 -2.9999 0.0 0
M  V30 30 C -0.366 2.5388 0.0 0
M  V30 31 C -1.366 2.5388 0.0 0
M  V30 32 C 0.0 -3.4999 0.0 0
M  V30 END ATOM
M  V30 BEGIN BOND
M  V30 1 1 1 2
M  V30 2 2 2 3
M  V30 3 1 2 4
M  V30 4 1 3 5
M  V30 5 1 3 6
M  V30 6 2 4 7
M  V30 7 1 5 8
M  V30 8 2 5 9
M  V30 9 1 8 10
M  V30 10 1 9 11
M  V30 11 1 12 10
M  V30 12 1 12 13
M  V30 13 1 12 14
M  V30 14 1 12 15 CFG=1
M  V30 15 1 13 16
M  V30 16 1 13 17
M  V30 17 1 14 18
M  V30 18 2 16 19
M  V30 19 1 16 20
M  V30 20 2 20 21
M  V30 21 1 20 22
M  V30 22 1 21 23
M  V30 23 1 21 24
M  V30 24 2 22 25
M  V30 25 1 23 26
M  V30 26 1 23 27
M  V30 27 2 24 28
M  V30 28 1 25 29
M  V30 29 2 26 30
M  V30 30 2 27 31
M  V30 31 1 29 32
M  V30 32 1 7 9
M  V30 33 2 10 11
M  V30 34 1 17 18
M  V30 35 1 25 28
M  V30 36 1 30 31
M  V30 END BOND
M  V30 BEGIN COLLECTION
M  V30 MDLV30/STERAC1 ATOMS=(1 12)
M  V30 END COLLECTION
M  V30 END CTAB
M  END
>  <Molecule Name>


>  <status>
-

>  <cas>
1505484-82-1

>  <name>
DARIDOREXANT

>  <ID>
2041

>  <Smiles>
CC(CCC1)(c2nc(ccc(Cl)c3C)c3[nH]2)N1C(c(cc(cc1)OC)c1-n1nccn1)=O

$$$$

Actelion Java MolfileCreator 2.0

  0  0  0  0  0  0              0 V3000
M  V30 BEGIN CTAB
M  V30 COUNTS 20 21 0 0 0
M  V30 BEGIN ATOM
M  V30 1 O 5.1961 -0.5 0.0 0
M  V30 2 C 4.3301 0.0 0.0 0
M  V30 3 N 4.3301 1.0 0.0 0
M  V30 4 N 3.4641 -0.4999 0.0 0
M  V30 5 C 3.4641 1.5 0.0 0
M  V30 6 C 5.1961 1.5 0.0 0
M  V30 7 C 2.598 0.0 0.0 0
M  V30 8 O 3.4641 2.5 0.0 0
M  V30 9 C 2.598 1.0 0.0 0
M  V30 10 C 6.0621 1.0 0.0 0
M  V30 11 C 5.1961 2.5 0.0 0
M  V30 12 N 1.732 -0.5 0.0 0
M  V30 13 C 0.866 0.0 0.0 0 CFG=2
M  V30 14 C 0.866 1.0 0.0 0
M  V30 15 C 0.0 -0.5 0.0 0
M  V30 16 C 1.732 1.4999 0.0 0
M  V30 17 C 0.0 1.4999 0.0 0
M  V30 18 C 1.732 2.5 0.0 0
M  V30 19 C 0.0 2.5 0.0 0
M  V30 20 C 0.866 3.0 0.0 0
M  V30 END ATOM
M  V30 BEGIN BOND
M  V30 1 2 1 2
M  V30 2 1 2 3
M  V30 3 1 2 4
M  V30 4 1 3 5
M  V30 5 1 3 6
M  V30 6 1 4 7
M  V30 7 2 5 8
M  V30 8 1 5 9
M  V30 9 1 6 10
M  V30 10 1 6 11
M  V30 11 1 7 12
M  V30 12 1 13 12 CFG=1
M  V30 13 1 13 14
M  V30 14 1 13 15
M  V30 15 2 14 16
M  V30 16 1 14 17
M  V30 17 1 16 18
M  V30 18 2 17 19
M  V30 19 2 18 20
M  V30 20 2 7 9
M  V30 21 1 19 20
M  V30 END BOND
M  V30 BEGIN COLLECTION
M  V30 MDLV30/STERAC1 ATOMS=(1 13)
M  V30 END COLLECTION
M  V30 END CTAB
M  END
>  <Molecule Name>


>  <status>
-

>  <cas>
1642288-47-8

>  <name>
MAVACAMTEN

>  <ID>
2042

>  <Smiles>
CC(C)N(C(C=C(NC(C)c1ccccc1)N1)=O)C1=O

$$$$

Actelion Java MolfileCreator 2.0

  0  0  0  0  0  0              0 V3000
M  V30 BEGIN CTAB
M  V30 COUNTS 24 26 0 0 0
M  V30 BEGIN ATOM
M  V30 1 S 7.7629 0.3478 0.0 0
M  V30 2 O 7.9196 1.8395 0.0 0
M  V30 3 O 9.1332 0.9578 0.0 0
M  V30 4 N 6.2711 0.5046 0.0 0
M  V30 5 C 8.373 -1.0225 0.0 0
M  V30 6 C 5.5211 1.8036 0.0 0
M  V30 7 C 5.2674 -0.6101 0.0 0
M  V30 8 C 9.8648 -1.1792 0.0 0
M  V30 9 C 7.4913 -2.236 0.0 0
M  V30 10 C 6.1312 3.1739 0.0 0
M  V30 11 C 4.0539 1.4917 0.0 0
M  V30 12 C 3.8971 0.0 0.0 0
M  V30 13 N 10.4749 -2.5496 0.0 0
M  V30 14 C 8.1014 -3.6063 0.0 0
M  V30 15 C 5.2495 4.3875 0.0 0
M  V30 16 C 7.623 3.3307 0.0 0
M  V30 17 C 2.598 -0.75 0.0 0
M  V30 18 C 9.5932 -3.7631 0.0 0
M  V30 19 F 3.7577 4.2307 0.0 0
M  V30 20 C 5.8596 5.7578 0.0 0
M  V30 21 C 8.2331 4.701 0.0 0
M  V30 22 N 1.299 0.0 0.0 0
M  V30 23 C 7.3514 5.9146 0.0 0
M  V30 24 C 0.0 -0.75 0.0 0
M  V30 END ATOM
M  V30 BEGIN BOND
M  V30 1 2 1 2
M  V30 2 2 1 3
M  V30 3 1 1 4
M  V30 4 1 1 5
M  V30 5 1 4 6
M  V30 6 1 4 7
M  V30 7 2 5 8
M  V30 8 1 5 9
M  V30 9 1 6 10
M  V30 10 2 6 11
M  V30 11 2 7 12
M  V30 12 1 8 13
M  V30 13 2 9 14
M  V30 14 2 10 15
M  V30 15 1 10 16
M  V30 16 1 12 17
M  V30 17 2 13 18
M  V30 18 1 15 19
M  V30 19 1 15 20
M  V30 20 2 16 21
M  V30 21 1 17 22
M  V30 22 2 20 23
M  V30 23 1 22 24
M  V30 24 1 11 12
M  V30 25 1 14 18
M  V30 26 1 21 23
M  V30 END BOND
M  V30 END CTAB
M  END
>  <Molecule Name>


>  <status>
-

>  <cas>
881681-00-1

>  <name>
VONOPRAZAN

>  <ID>
2043

>  <Smiles>
CNCc(cc1-c(cccc2)c2F)cn1S(c1cnccc1)(=O)=O

$$$$

Actelion Java MolfileCreator 2.0

  0  0  0  0  0  0              0 V3000
M  V30 BEGIN CTAB
M  V30 COUNTS 43 48 0 0 0
M  V30 BEGIN ATOM
M  V30 1 F 4.3301 -2.0 0.0 0
M  V30 2 C 5.1961 -1.4999 0.0 0
M  V30 3 C 6.0621 -1.9999 0.0 0
M  V30 4 C 5.1961 -0.4999 0.0 0
M  V30 5 F 6.0621 -2.9999 0.0 0
M  V30 6 C 6.9282 -1.4999 0.0 0
M  V30 7 C 6.0621 0.0 0.0 0
M  V30 8 C 4.3301 0.0 0.0 0 CFG=1
M  V30 9 C 6.9282 -0.4999 0.0 0
M  V30 10 F 6.0621 1.0 0.0 0
M  V30 11 C 4.3301 1.0 0.0 0 CFG=2
M  V30 12 C 3.4641 -0.4999 0.0 0
M  V30 13 N 3.4641 1.5 0.0 0
M  V30 14 C 5.1961 1.5 0.0 0
M  V30 15 C 2.598 0.0 0.0 0 CFG=1
M  V30 16 C 2.598 1.0 0.0 0
M  V30 17 C 3.4641 2.5 0.0 0
M  V30 18 N 1.732 -0.5 0.0 0
M  V30 19 O 1.732 1.4999 0.0 0
M  V30 20 C 2.598 3.0 0.0 0
M  V30 21 C 0.866 0.0 0.0 0
M  V30 22 F 2.098 2.1339 0.0 0
M  V30 23 F 1.732 3.5 0.0 0
M  V30 24 F 3.098 3.866 0.0 0
M  V30 25 O 0.866 1.0 0.0 0
M  V30 26 C 0.0 -0.5 0.0 0
M  V30 27 C -0.866 0.0 0.0 0
M  V30 28 C 0.0 -1.4999 0.0 0
M  V30 29 N -1.732 -0.4999 0.0 0
M  V30 30 C -0.866 -1.9999 0.0 0
M  V30 31 C -1.732 -1.4999 0.0 0
M  V30 32 C -1.0739 -2.9781 0.0 0
M  V30 33 C -2.4751 -2.1691 0.0 0
M  V30 34 C -2.0684 -3.0826 0.0 0 CFG=1
M  V30 35 C -3.0629 -3.1872 0.0 0
M  V30 36 C -1.6617 -3.9962 0.0 0
M  V30 37 O -3.7321 -2.444 0.0 0
M  V30 38 N -3.2708 -4.1653 0.0 0
M  V30 39 C -2.4048 -4.6653 0.0 0
M  V30 40 C -0.7106 -4.3052 0.0 0
M  V30 41 N -2.1969 -5.6434 0.0 0
M  V30 42 C -0.5027 -5.2833 0.0 0
M  V30 43 C -1.2458 -5.9525 0.0 0
M  V30 END ATOM
M  V30 BEGIN BOND
M  V30 1 1 1 2
M  V30 2 2 2 3
M  V30 3 1 2 4
M  V30 4 1 3 5
M  V30 5 1 3 6
M  V30 6 2 4 7
M  V30 7 1 8 4 CFG=3
M  V30 8 2 6 9
M  V30 9 1 7 10
M  V30 10 1 11 8
M  V30 11 1 8 12
M  V30 12 1 11 13
M  V30 13 1 11 14 CFG=3
M  V30 14 1 15 12
M  V30 15 1 13 16
M  V30 16 1 13 17
M  V30 17 1 15 18 CFG=3
M  V30 18 2 16 19
M  V30 19 1 17 20
M  V30 20 1 18 21
M  V30 21 1 20 22
M  V30 22 1 20 23
M  V30 23 1 20 24
M  V30 24 2 21 25
M  V30 25 1 21 26
M  V30 26 2 26 27
M  V30 27 1 26 28
M  V30 28 1 27 29
M  V30 29 2 28 30
M  V30 30 2 29 31
M  V30 31 1 30 32
M  V30 32 1 31 33
M  V30 33 1 34 32 CFG=3
M  V30 34 1 34 35
M  V30 35 1 34 36
M  V30 36 2 35 37
M  V30 37 1 35 38
M  V30 38 2 36 39
M  V30 39 1 36 40
M  V30 40 1 39 41
M  V30 41 2 40 42
M  V30 42 2 41 43
M  V30 43 1 7 9
M  V30 44 1 15 16
M  V30 45 1 30 31
M  V30 46 1 33 34
M  V30 47 1 38 39
M  V30 48 1 42 43
M  V30 END BOND
M  V30 BEGIN COLLECTION
M  V30 MDLV30/STERAC1 ATOMS=(4 8 11 15 34)
M  V30 END COLLECTION
M  V30 END CTAB
M  END
>  <Molecule Name>


>  <status>
-

>  <cas>
1374248-81-3

>  <name>
ATOGEPANT

>  <ID>
2044

>  <Smiles>
C[C@H]([C@@H](C[C@@H]1NC(c2cnc(C[C@@](C3)(c4c(N5)nccc4)C5=O)c3c2)=O)c(c(F)c(cc2)F)c2F)N(CC(F)(F)F)C1=O

$$$$

Actelion Java MolfileCreator 2.0

  0  0  0  0  0  0              0 V3000
M  V30 BEGIN CTAB
M  V30 COUNTS 19 20 0 0 0
M  V30 BEGIN ATOM
M  V30 1 O 5.1961 -0.5 0.0 0
M  V30 2 C 4.3301 0.0 0.0 0
M  V30 3 C 4.3301 1.0 0.0 0
M  V30 4 C 3.4641 -0.4999 0.0 0
M  V30 5 C 3.4641 1.5 0.0 0
M  V30 6 C 5.1961 1.5 0.0 0
M  V30 7 C 2.598 0.0 0.0 0
M  V30 8 O 3.4641 2.5 0.0 0
M  V30 9 C 2.598 1.0 0.0 0
M  V30 10 C 6.0621 1.0 0.0 0
M  V30 11 C 5.1961 2.5 0.0 0
M  V30 12 C 1.732 -0.5 0.0 0
M  V30 13 C 0.866 0.0 0.0 0
M  V30 14 C 0.0 -0.5 0.0 0
M  V30 15 C -0.866 0.0 0.0 0
M  V30 16 C 0.0 -1.4999 0.0 0
M  V30 17 C -1.732 -0.4999 0.0 0
M  V30 18 C -0.866 -1.9999 0.0 0
M  V30 19 C -1.732 -1.4999 0.0 0
M  V30 END ATOM
M  V30 BEGIN BOND
M  V30 1 1 1 2
M  V30 2 2 2 3
M  V30 3 1 2 4
M  V30 4 1 3 5
M  V30 5 1 3 6
M  V30 6 2 4 7
M  V30 7 1 5 8
M  V30 8 2 5 9
M  V30 9 1 6 10
M  V30 10 1 6 11
M  V30 11 1 7 12
M  V30 12 2 12 13
M  V30 13 1 13 14
M  V30 14 2 14 15
M  V30 15 1 14 16
M  V30 16 1 15 17
M  V30 17 2 16 18
M  V30 18 2 17 19
M  V30 19 1 7 9
M  V30 20 1 18 19
M  V30 END BOND
M  V30 END CTAB
M  END
>  <Molecule Name>


>  <status>
-

>  <cas>
79338-84-4

>  <name>
TAPINAROF

>  <ID>
2045

>  <Smiles>
CC(C)c(c(O)cc(/C=C/c1ccccc1)c1)c1O

$$$$

Actelion Java MolfileCreator 2.0

  0  0  0  0  0  0              0 V3000
M  V30 BEGIN CTAB
M  V30 COUNTS 43 46 0 0 0
M  V30 BEGIN ATOM
M  V30 1 O 16.8874 0.0 0.0 0
M  V30 2 C 15.5884 -0.75 0.0 0
M  V30 3 O 15.5884 -2.25 0.0 0
M  V30 4 C 14.2894 0.0 0.0 0
M  V30 5 C 14.2894 -3.0 0.0 0
M  V30 6 C 14.2894 1.4999 0.0 0
M  V30 7 C 12.9903 -0.75 0.0 0
M  V30 8 C 12.9903 -2.25 0.0 0
M  V30 9 C 14.2894 -4.5 0.0 0
M  V30 10 N 12.9903 2.2499 0.0 0
M  V30 11 C 15.5884 2.2499 0.0 0
M  V30 12 N 11.6913 0.0 0.0 0
M  V30 13 C 11.6913 1.4999 0.0 0
M  V30 14 C 15.7452 3.7417 0.0 0
M  V30 15 C 16.9587 1.6398 0.0 0
M  V30 16 N 10.3923 2.2499 0.0 0
M  V30 17 C 17.2124 4.0536 0.0 0
M  V30 18 C 14.7415 4.8565 0.0 0
M  V30 19 N 17.9624 2.7546 0.0 0
M  V30 20 C 9.0932 1.4999 0.0 0
M  V30 21 C 17.6759 5.4802 0.0 0
M  V30 22 C 15.205 6.283 0.0 0
M  V30 23 C 19.4542 2.5978 0.0 0
M  V30 24 C 7.7942 2.2499 0.0 0
M  V30 25 C 9.0932 0.0 0.0 0
M  V30 26 C 16.6723 6.5949 0.0 0
M  V30 27 O 7.7942 3.75 0.0 0
M  V30 28 C 6.4951 1.5 0.0 0
M  V30 29 C 7.7942 -0.75 0.0 0
M  V30 30 C 6.4951 4.5 0.0 0
M  V30 31 C 6.4951 0.0 0.0 0
M  V30 32 N 7.7942 -2.25 0.0 0
M  V30 33 N 5.1961 -0.75 0.0 0
M  V30 34 C 9.0932 -3.0 0.0 0
M  V30 35 C 3.8971 0.0 0.0 0
M  V30 36 C 5.1961 -2.25 0.0 0
M  V30 37 O 10.3923 -2.25 0.0 0
M  V30 38 C 9.0932 -4.5 0.0 0
M  V30 39 C 2.598 -0.75 0.0 0
M  V30 40 C 10.3923 -5.25 0.0 0
M  V30 41 N 1.299 0.0 0.0 0
M  V30 42 C 1.299 1.5 0.0 0
M  V30 43 C 0.0 -0.75 0.0 0
M  V30 END ATOM
M  V30 BEGIN BOND
M  V30 1 2 1 2
M  V30 2 1 2 3
M  V30 3 1 2 4
M  V30 4 1 3 5
M  V30 5 2 4 6
M  V30 6 1 4 7
M  V30 7 1 5 8
M  V30 8 1 5 9
M  V30 9 1 6 10
M  V30 10 1 6 11
M  V30 11 2 7 12
M  V30 12 2 10 13
M  V30 13 1 11 14
M  V30 14 2 11 15
M  V30 15 1 13 16
M  V30 16 2 14 17
M  V30 17 1 14 18
M  V30 18 1 15 19
M  V30 19 1 16 20
M  V30 20 1 17 21
M  V30 21 2 18 22
M  V30 22 1 19 23
M  V30 23 2 20 24
M  V30 24 1 20 25
M  V30 25 2 21 26
M  V30 26 1 24 27
M  V30 27 1 24 28
M  V30 28 2 25 29
M  V30 29 1 27 30
M  V30 30 2 28 31
M  V30 31 1 29 32
M  V30 32 1 31 33
M  V30 33 1 32 34
M  V30 34 1 33 35
M  V30 35 1 33 36
M  V30 36 2 34 37
M  V30 37 1 34 38
M  V30 38 1 35 39
M  V30 39 2 38 40
M  V30 40 1 39 41
M  V30 41 1 41 42
M  V30 42 1 41 43
M  V30 43 1 12 13
M  V30 44 1 17 19
M  V30 45 1 22 26
M  V30 46 1 29 31
M  V30 END BOND
M  V30 END CTAB
M  END
>  <Molecule Name>


>  <status>
-

>  <cas>
1847461-43-1

>  <name>
MOBOCERTINIB

>  <ID>
2046

>  <Smiles>
CC(C)OC(c1c(-c2cn(C)c3c2cccc3)nc(Nc(cc(c(N(C)CCN(C)C)c2)NC(C=C)=O)c2OC)nc1)=O

$$$$

Actelion Java MolfileCreator 2.0

  0  0  0  0  0  0              0 V3000
M  V30 BEGIN CTAB
M  V30 COUNTS 42 45 0 0 0
M  V30 BEGIN ATOM
M  V30 1 O 16.8874 0.0 0.0 0
M  V30 2 C 15.5884 -0.75 0.0 0
M  V30 3 O 15.5884 -2.25 0.0 0
M  V30 4 C 14.2894 0.0 0.0 0
M  V30 5 C 14.2894 -3.0 0.0 0
M  V30 6 C 14.2894 1.4999 0.0 0
M  V30 7 C 12.9903 -0.75 0.0 0
M  V30 8 C 12.9903 -2.25 0.0 0
M  V30 9 C 14.2894 -4.5 0.0 0
M  V30 10 N 12.9903 2.2499 0.0 0
M  V30 11 C 15.5884 2.2499 0.0 0
M  V30 12 N 11.6913 0.0 0.0 0
M  V30 13 C 11.6913 1.4999 0.0 0
M  V30 14 C 15.7452 3.7417 0.0 0
M  V30 15 C 16.9587 1.6398 0.0 0
M  V30 16 N 10.3923 2.2499 0.0 0
M  V30 17 C 17.2124 4.0536 0.0 0
M  V30 18 C 14.7415 4.8565 0.0 0
M  V30 19 N 17.9624 2.7546 0.0 0
M  V30 20 C 9.0932 1.4999 0.0 0
M  V30 21 C 17.6759 5.4802 0.0 0
M  V30 22 C 15.205 6.283 0.0 0
M  V30 23 C 19.4542 2.5978 0.0 0
M  V30 24 C 7.7942 2.2499 0.0 0
M  V30 25 C 9.0932 0.0 0.0 0
M  V30 26 C 16.6723 6.5949 0.0 0
M  V30 27 O 7.7942 3.75 0.0 0
M  V30 28 C 6.4951 1.5 0.0 0
M  V30 29 C 7.7942 -0.75 0.0 0
M  V30 30 C 6.4951 4.5 0.0 0
M  V30 31 C 6.4951 0.0 0.0 0
M  V30 32 N 7.7942 -2.25 0.0 0
M  V30 33 N 5.1961 -0.75 0.0 0
M  V30 34 C 9.0932 -3.0 0.0 0
M  V30 35 C 3.8971 0.0 0.0 0
M  V30 36 C 5.1961 -2.25 0.0 0
M  V30 37 O 10.3923 -2.25 0.0 0
M  V30 38 C 9.0932 -4.5 0.0 0
M  V30 39 C 2.598 -0.75 0.0 0
M  V30 40 C 10.3923 -5.25 0.0 0
M  V30 41 N 1.299 0.0 0.0 0
M  V30 42 C 0.0 -0.75 0.0 0
M  V30 END ATOM
M  V30 BEGIN BOND
M  V30 1 2 1 2
M  V30 2 1 2 3
M  V30 3 1 2 4
M  V30 4 1 3 5
M  V30 5 2 4 6
M  V30 6 1 4 7
M  V30 7 1 5 8
M  V30 8 1 5 9
M  V30 9 1 6 10
M  V30 10 1 6 11
M  V30 11 2 7 12
M  V30 12 2 10 13
M  V30 13 1 11 14
M  V30 14 2 11 15
M  V30 15 1 13 16
M  V30 16 2 14 17
M  V30 17 1 14 18
M  V30 18 1 15 19
M  V30 19 1 16 20
M  V30 20 1 17 21
M  V30 21 2 18 22
M  V30 22 1 19 23
M  V30 23 2 20 24
M  V30 24 1 20 25
M  V30 25 2 21 26
M  V30 26 1 24 27
M  V30 27 1 24 28
M  V30 28 2 25 29
M  V30 29 1 27 30
M  V30 30 2 28 31
M  V30 31 1 29 32
M  V30 32 1 31 33
M  V30 33 1 32 34
M  V30 34 1 33 35
M  V30 35 1 33 36
M  V30 36 2 34 37
M  V30 37 1 34 38
M  V30 38 1 35 39
M  V30 39 2 38 40
M  V30 40 1 39 41
M  V30 41 1 41 42
M  V30 42 1 12 13
M  V30 43 1 17 19
M  V30 44 1 22 26
M  V30 45 1 29 31
M  V30 END BOND
M  V30 END CTAB
M  END
>  <Molecule Name>


>  <status>
-

>  <cas>
1847462-25-2

>  <name>
M MOBOCERTINIB

>  <ID>
2047

>  <Smiles>
CC(C)OC(c1c(-c2cn(C)c3c2cccc3)nc(Nc(cc(c(N(C)CCNC)c2)NC(C=C)=O)c2OC)nc1)=O

$$$$

Actelion Java MolfileCreator 2.0

  0  0  0  0  0  0              0 V3000
M  V30 BEGIN CTAB
M  V30 COUNTS 42 45 0 0 0
M  V30 BEGIN ATOM
M  V30 1 O 16.8874 0.0 0.0 0
M  V30 2 C 15.5884 -0.75 0.0 0
M  V30 3 O 15.5884 -2.25 0.0 0
M  V30 4 C 14.2894 0.0 0.0 0
M  V30 5 C 14.2894 -3.0 0.0 0
M  V30 6 C 14.2894 1.4999 0.0 0
M  V30 7 C 12.9903 -0.75 0.0 0
M  V30 8 C 12.9903 -2.25 0.0 0
M  V30 9 C 14.2894 -4.5 0.0 0
M  V30 10 N 12.9903 2.2499 0.0 0
M  V30 11 C 15.5884 2.2499 0.0 0
M  V30 12 N 11.6913 0.0 0.0 0
M  V30 13 C 11.6913 1.4999 0.0 0
M  V30 14 C 15.7452 3.7417 0.0 0
M  V30 15 C 16.9587 1.6398 0.0 0
M  V30 16 N 10.3923 2.2499 0.0 0
M  V30 17 C 17.2124 4.0536 0.0 0
M  V30 18 C 14.7415 4.8565 0.0 0
M  V30 19 N 17.9624 2.7546 0.0 0
M  V30 20 C 9.0932 1.4999 0.0 0
M  V30 21 C 17.6759 5.4802 0.0 0
M  V30 22 C 15.205 6.283 0.0 0
M  V30 23 C 7.7942 2.2499 0.0 0
M  V30 24 C 9.0932 0.0 0.0 0
M  V30 25 C 16.6723 6.5949 0.0 0
M  V30 26 O 7.7942 3.75 0.0 0
M  V30 27 C 6.4951 1.5 0.0 0
M  V30 28 C 7.7942 -0.75 0.0 0
M  V30 29 C 6.4951 4.5 0.0 0
M  V30 30 C 6.4951 0.0 0.0 0
M  V30 31 N 7.7942 -2.25 0.0 0
M  V30 32 N 5.1961 -0.75 0.0 0
M  V30 33 C 9.0932 -3.0 0.0 0
M  V30 34 C 3.8971 0.0 0.0 0
M  V30 35 C 5.1961 -2.25 0.0 0
M  V30 36 O 10.3923 -2.25 0.0 0
M  V30 37 C 9.0932 -4.5 0.0 0
M  V30 38 C 2.598 -0.75 0.0 0
M  V30 39 C 10.3923 -5.25 0.0 0
M  V30 40 N 1.299 0.0 0.0 0
M  V30 41 C 1.299 1.5 0.0 0
M  V30 42 C 0.0 -0.75 0.0 0
M  V30 END ATOM
M  V30 BEGIN BOND
M  V30 1 2 1 2
M  V30 2 1 2 3
M  V30 3 1 2 4
M  V30 4 1 3 5
M  V30 5 2 4 6
M  V30 6 1 4 7
M  V30 7 1 5 8
M  V30 8 1 5 9
M  V30 9 1 6 10
M  V30 10 1 6 11
M  V30 11 2 7 12
M  V30 12 2 10 13
M  V30 13 1 11 14
M  V30 14 2 11 15
M  V30 15 1 13 16
M  V30 16 2 14 17
M  V30 17 1 14 18
M  V30 18 1 15 19
M  V30 19 1 16 20
M  V30 20 1 17 21
M  V30 21 2 18 22
M  V30 22 2 20 23
M  V30 23 1 20 24
M  V30 24 2 21 25
M  V30 25 1 23 26
M  V30 26 1 23 27
M  V30 27 2 24 28
M  V30 28 1 26 29
M  V30 29 2 27 30
M  V30 30 1 28 31
M  V30 31 1 30 32
M  V30 32 1 31 33
M  V30 33 1 32 34
M  V30 34 1 32 35
M  V30 35 2 33 36
M  V30 36 1 33 37
M  V30 37 1 34 38
M  V30 38 2 37 39
M  V30 39 1 38 40
M  V30 40 1 40 41
M  V30 41 1 40 42
M  V30 42 1 12 13
M  V30 43 1 17 19
M  V30 44 1 22 25
M  V30 45 1 28 30
M  V30 END BOND
M  V30 END CTAB
M  END
>  <Molecule Name>


>  <status>
-

>  <cas>
1847461-70-4

>  <name>
M MOBOCERTINIB

>  <ID>
2048

>  <Smiles>
CC(C)OC(c1c(-c2c[nH]c3c2cccc3)nc(Nc(cc(c(N(C)CCN(C)C)c2)NC(C=C)=O)c2OC)nc1)=O

$$$$

Actelion Java MolfileCreator 2.0

  0  0  0  0  0  0              0 V3000
M  V30 BEGIN CTAB
M  V30 COUNTS 28 30 0 0 0
M  V30 BEGIN ATOM
M  V30 1 O 3.3361 -3.5301 0.0 0
M  V30 2 C 4.3301 -2.9999 0.0 0
M  V30 3 N 5.1961 -3.4999 0.0 0
M  V30 4 C 4.3301 -1.9999 0.0 0
M  V30 5 C 5.1961 -1.4999 0.0 0
M  V30 6 C 3.4641 -1.4999 0.0 0 CFG=1
M  V30 7 N 5.1961 -0.4999 0.0 0
M  V30 8 C 6.0621 -1.9999 0.0 0
M  V30 9 C 3.4641 -0.4999 0.0 0
M  V30 10 C 2.598 -1.9999 0.0 0
M  V30 11 C 4.3301 0.0 0.0 0
M  V30 12 C 2.598 0.0 0.0 0
M  V30 13 C 2.598 -2.9999 0.0 0
M  V30 14 C 1.732 -1.5 0.0 0
M  V30 15 C 4.3301 1.0 0.0 0
M  V30 16 O 1.732 -0.5 0.0 0
M  V30 17 N 2.598 1.0 0.0 0
M  V30 18 O 3.5738 -3.7057 0.0 0
M  V30 19 C 1.732 -3.5 0.0 0
M  V30 20 C 0.866 -2.0 0.0 0
M  V30 21 C 3.4641 1.5 0.0 0
M  V30 22 C 5.1961 1.5 0.0 0
M  V30 23 C 0.866 0.0 0.0 0
M  V30 24 C 3.4641 -4.4999 0.0 0
M  V30 25 C 0.866 -3.0 0.0 0
M  V30 26 C 0.0 -0.5 0.0 0
M  V30 27 C 0.0 -3.5 0.0 0
M  V30 28 N -0.866 -4.0 0.0 0
M  V30 END ATOM
M  V30 BEGIN BOND
M  V30 1 2 1 2
M  V30 2 1 2 3
M  V30 3 1 2 4
M  V30 4 2 4 5
M  V30 5 1 6 4
M  V30 6 1 5 7
M  V30 7 1 5 8
M  V30 8 1 6 9
M  V30 9 1 6 10 CFG=3
M  V30 10 1 7 11
M  V30 11 1 9 12
M  V30 12 2 10 13
M  V30 13 1 10 14
M  V30 14 1 11 15
M  V30 15 1 12 16
M  V30 16 2 12 17
M  V30 17 1 13 18
M  V30 18 1 13 19
M  V30 19 2 14 20
M  V30 20 2 15 21
M  V30 21 1 15 22
M  V30 22 1 16 23
M  V30 23 1 18 24
M  V30 24 2 19 25
M  V30 25 1 23 26
M  V30 26 1 25 27
M  V30 27 3 27 28
M  V30 28 2 9 11
M  V30 29 1 17 21
M  V30 30 1 20 25
M  V30 END BOND
M  V30 BEGIN COLLECTION
M  V30 MDLV30/STERAC1 ATOMS=(1 6)
M  V30 END COLLECTION
M  V30 END CTAB
M  END
>  <Molecule Name>


>  <status>
-

>  <cas>
1050477-31-0

>  <name>
FINERENONE

>  <ID>
2049

>  <Smiles>
CCOc1ncc(C)c2c1C(c(ccc(C#N)c1)c1OC)C(C(N)=O)=C(C)N2

$$$$

Actelion Java MolfileCreator 2.0

  0  0  0  0  0  0              0 V3000
M  V30 BEGIN CTAB
M  V30 COUNTS 31 34 0 0 0
M  V30 BEGIN ATOM
M  V30 1 Cl 6.5621 1.866 0.0 0
M  V30 2 C 6.0621 1.0 0.0 0
M  V30 3 F 6.9282 0.5 0.0 0
M  V30 4 F 5.5621 0.1339 0.0 0
M  V30 5 O 5.1961 1.5 0.0 0
M  V30 6 C 4.3301 1.0 0.0 0
M  V30 7 C 3.4641 1.5 0.0 0
M  V30 8 C 4.3301 0.0 0.0 0
M  V30 9 C 2.598 0.9999 0.0 0
M  V30 10 C 3.4641 -0.4999 0.0 0
M  V30 11 C 2.598 0.0 0.0 0
M  V30 12 N 1.732 -0.5 0.0 0
M  V30 13 C 0.866 0.0 0.0 0
M  V30 14 O 0.866 1.0 0.0 0
M  V30 15 C 0.0 -0.5 0.0 0
M  V30 16 C -0.866 0.0 0.0 0
M  V30 17 C 0.0 -1.4999 0.0 0
M  V30 18 N -1.732 -0.4999 0.0 0
M  V30 19 C -0.866 -1.9999 0.0 0
M  V30 20 C -1.732 -1.4999 0.0 0
M  V30 21 C -0.866 -2.9999 0.0 0
M  V30 22 N -2.598 -1.9999 0.0 0
M  V30 23 N -1.675 -3.5877 0.0 0
M  V30 24 C -0.057 -3.5877 0.0 0
M  V30 25 C -3.5116 -1.5932 0.0 0
M  V30 26 C -2.7026 -2.9945 0.0 0
M  V30 27 N -1.366 -4.5388 0.0 0
M  V30 28 C -0.366 -4.5388 0.0 0
M  V30 29 C -4.1807 -2.3364 0.0 0 CFG=2
M  V30 30 C -3.6807 -3.2024 0.0 0
M  V30 31 O -5.1752 -2.2318 0.0 0
M  V30 END ATOM
M  V30 BEGIN BOND
M  V30 1 1 1 2
M  V30 2 1 2 3
M  V30 3 1 2 4
M  V30 4 1 2 5
M  V30 5 1 5 6
M  V30 6 2 6 7
M  V30 7 1 6 8
M  V30 8 1 7 9
M  V30 9 2 8 10
M  V30 10 2 9 11
M  V30 11 1 11 12
M  V30 12 1 12 13
M  V30 13 2 13 14
M  V30 14 1 13 15
M  V30 15 2 15 16
M  V30 16 1 15 17
M  V30 17 1 16 18
M  V30 18 2 17 19
M  V30 19 2 18 20
M  V30 20 1 19 21
M  V30 21 1 20 22
M  V30 22 2 21 23
M  V30 23 1 21 24
M  V30 24 1 22 25
M  V30 25 1 22 26
M  V30 26 1 23 27
M  V30 27 2 24 28
M  V30 28 1 29 25
M  V30 29 1 26 30
M  V30 30 1 29 31 CFG=3
M  V30 31 1 10 11
M  V30 32 1 19 20
M  V30 33 1 27 28
M  V30 34 1 29 30
M  V30 END BOND
M  V30 BEGIN COLLECTION
M  V30 MDLV30/STERAC1 ATOMS=(1 29)
M  V30 END COLLECTION
M  V30 END CTAB
M  END
>  <Molecule Name>


>  <status>
-

>  <cas>
1492952-76-7

>  <name>
ASCIMINIB

>  <ID>
2050

>  <Smiles>
OC(CC1)CN1c(c(-c1n[nH]cc1)c1)ncc1C(Nc(cc1)ccc1OC(F)(F)Cl)=O

$$$$

Actelion Java MolfileCreator 2.0

  0  0  0  0  0  0              0 V3000
M  V30 BEGIN CTAB
M  V30 COUNTS 26 28 0 0 0
M  V30 BEGIN ATOM
M  V30 1 S 6.4951 -2.9999 0.0 0
M  V30 2 O 5.7451 -4.299 0.0 0
M  V30 3 O 7.2451 -1.7009 0.0 0
M  V30 4 C 5.1961 -2.2499 0.0 0
M  V30 5 C 7.7942 -3.7499 0.0 0
M  V30 6 C 3.8971 -2.9999 0.0 0
M  V30 7 C 5.1961 -0.7499 0.0 0
M  V30 8 C 2.598 -2.25 0.0 0
M  V30 9 C 3.5852 -4.4672 0.0 0 CFG=2
M  V30 10 C 3.8971 0.0 0.0 0
M  V30 11 C 2.598 -0.75 0.0 0
M  V30 12 C 1.4833 -3.2536 0.0 0 CFG=2
M  V30 13 O 4.5889 -5.5819 0.0 0
M  V30 14 C 2.0934 -4.624 0.0 0 CFG=1
M  V30 15 O 1.299 0.0 0.0 0
M  V30 16 F 0.0161 -2.9418 0.0 0
M  V30 17 F 1.3434 -5.923 0.0 0
M  V30 18 C 1.299 1.5 0.0 0
M  V30 19 C 2.598 2.2499 0.0 0
M  V30 20 C 0.0 2.25 0.0 0
M  V30 21 C 2.598 3.7499 0.0 0
M  V30 22 C 0.0 3.75 0.0 0
M  V30 23 F 3.8971 4.5 0.0 0
M  V30 24 C 1.299 4.5 0.0 0
M  V30 25 C -1.299 4.5 0.0 0
M  V30 26 N -2.598 5.25 0.0 0
M  V30 END ATOM
M  V30 BEGIN BOND
M  V30 1 2 1 2
M  V30 2 2 1 3
M  V30 3 1 1 4
M  V30 4 1 1 5
M  V30 5 2 4 6
M  V30 6 1 4 7
M  V30 7 1 6 8
M  V30 8 1 9 6
M  V30 9 2 7 10
M  V30 10 2 8 11
M  V30 11 1 12 8
M  V30 12 1 9 13 CFG=3
M  V30 13 1 14 9
M  V30 14 1 11 15
M  V30 15 1 12 16 CFG=3
M  V30 16 1 14 17 CFG=3
M  V30 17 1 15 18
M  V30 18 2 18 19
M  V30 19 1 18 20
M  V30 20 1 19 21
M  V30 21 2 20 22
M  V30 22 1 21 23
M  V30 23 2 21 24
M  V30 24 1 22 25
M  V30 25 3 25 26
M  V30 26 1 10 11
M  V30 27 1 12 14
M  V30 28 1 22 24
M  V30 END BOND
M  V30 BEGIN COLLECTION
M  V30 MDLV30/STERAC1 ATOMS=(3 9 12 14)
M  V30 END COLLECTION
M  V30 END CTAB
M  END
>  <Molecule Name>


>  <status>
-

>  <cas>
1672668-24-4

>  <name>
BELZUTIFAN

>  <ID>
2051

>  <Smiles>
CS(c(cc1)c([C@@H]([C@@H]([C@@H]2F)F)O)c2c1Oc1cc(F)cc(C#N)c1)(=O)=O

$$$$

Actelion Java MolfileCreator 2.0

  0  0  0  0  0  0              0 V3000
M  V30 BEGIN CTAB
M  V30 COUNTS 51 54 0 0 0
M  V30 BEGIN ATOM
M  V30 1 S 14.0658 -4.4832 0.0 0
M  V30 2 O 12.6035 -4.1494 0.0 0
M  V30 3 O 13.0456 -5.5828 0.0 0
M  V30 4 N 15.0861 -5.5828 0.0 0
M  V30 5 C 14.2894 -3.0 0.0 0
M  V30 6 C 16.5819 -5.4707 0.0 0
M  V30 7 C 15.5884 -2.25 0.0 0
M  V30 8 C 12.9903 -2.25 0.0 0
M  V30 9 C 17.4269 -4.2313 0.0 0
M  V30 10 C 17.3319 -6.7697 0.0 0
M  V30 11 C 15.881 -6.7969 0.0 0
M  V30 12 N 16.9847 -2.798 0.0 0
M  V30 13 C 15.5884 -0.75 0.0 0
M  V30 14 C 12.9903 -0.75 0.0 0
M  V30 15 C 18.8319 -6.7697 0.0 0
M  V30 16 C 16.679 -8.0669 0.0 0
M  V30 17 C 18.0843 -1.7777 0.0 0
M  V30 18 C 14.2894 0.0 0.0 0
M  V30 19 O 11.6913 0.0 0.0 0
M  V30 20 C 19.5819 -8.0688 0.0 0
M  V30 21 C 15.9781 -9.3931 0.0 0
M  V30 22 C 19.5177 -2.2198 0.0 0
M  V30 23 C 17.7505 -0.3153 0.0 0
M  V30 24 S 14.2894 1.5 0.0 0
M  V30 25 C 10.3923 -0.75 0.0 0
M  V30 26 C 21.0819 -8.0688 0.0 0
M  V30 27 C 16.7762 -10.6632 0.0 0
M  V30 28 C 20.6172 -1.1996 0.0 0
M  V30 29 C 18.8501 0.7048 0.0 0
M  V30 30 C 12.9903 2.25 0.0 0
M  V30 31 C 9.0932 0.0 0.0 0
M  V30 32 C 20.2835 0.2627 0.0 0
M  V30 33 O 9.0932 1.5 0.0 0
M  V30 34 N 7.7942 -0.75 0.0 0
M  V30 35 C 6.4951 0.0 0.0 0 CFG=2
M  V30 36 C 6.4951 1.5 0.0 0
M  V30 37 C 5.1961 -0.75 0.0 0
M  V30 38 C 7.7942 2.25 0.0 0
M  V30 39 C 5.1961 2.25 0.0 0
M  V30 40 O 5.1961 -2.25 0.0 0
M  V30 41 N 3.8971 0.0 0.0 0
M  V30 42 C 7.7942 3.75 0.0 0
M  V30 43 C 5.1961 3.75 0.0 0
M  V30 44 C 2.598 -0.75 0.0 0 CFG=2
M  V30 45 C 6.4951 4.5 0.0 0
M  V30 46 C 2.598 -2.25 0.0 0
M  V30 47 C 1.299 0.0 0.0 0
M  V30 48 O 6.4951 6.0 0.0 0
M  V30 49 O 1.299 -3.0 0.0 0
M  V30 50 O 3.8971 -3.0 0.0 0 CHG=-1
M  V30 51 C 0.0 -0.75 0.0 0
M  V30 END ATOM
M  V30 BEGIN BOND
M  V30 1 2 1 2
M  V30 2 2 1 3
M  V30 3 1 1 4
M  V30 4 1 1 5
M  V30 5 1 4 6
M  V30 6 2 5 7
M  V30 7 1 5 8
M  V30 8 1 6 9
M  V30 9 1 6 10
M  V30 10 1 6 11
M  V30 11 1 7 12
M  V30 12 1 7 13
M  V30 13 2 8 14
M  V30 14 1 10 15
M  V30 15 1 11 16
M  V30 16 1 12 17
M  V30 17 2 13 18
M  V30 18 1 14 19
M  V30 19 1 15 20
M  V30 20 1 16 21
M  V30 21 2 17 22
M  V30 22 1 17 23
M  V30 23 1 18 24
M  V30 24 1 19 25
M  V30 25 1 20 26
M  V30 26 1 21 27
M  V30 27 1 22 28
M  V30 28 2 23 29
M  V30 29 1 24 30
M  V30 30 1 25 31
M  V30 31 2 28 32
M  V30 32 2 31 33
M  V30 33 1 31 34
M  V30 34 1 35 34 CFG=1
M  V30 35 1 35 36
M  V30 36 1 35 37
M  V30 37 2 36 38
M  V30 38 1 36 39
M  V30 39 2 37 40
M  V30 40 1 37 41
M  V30 41 1 38 42
M  V30 42 2 39 43
M  V30 43 1 44 41 CFG=3
M  V30 44 2 42 45
M  V30 45 1 44 46
M  V30 46 1 44 47
M  V30 47 1 45 48
M  V30 48 2 46 49
M  V30 49 1 46 50
M  V30 50 1 47 51
M  V30 51 1 9 12
M  V30 52 1 14 18
M  V30 53 1 29 32
M  V30 54 1 43 45
M  V30 END BOND
M  V30 BEGIN COLLECTION
M  V30 MDLV30/STERAC1 ATOMS=(2 35 44)
M  V30 END COLLECTION
M  V30 END CTAB
M  END
>  <Molecule Name>


>  <status>
-

>  <cas>
501692-44-0

>  <name>
ODEVIXIBAT

>  <ID>
2052

>  <Smiles>
CCCCC(CCCC)(CN(c1ccccc1)c(cc1SC)c2cc1OCC(N[C@@H](C(N[C@@H](CC)C([O-])=O)=O)c(cc1)ccc1O)=O)NS2(=O)=O

$$$$

Actelion Java MolfileCreator 2.0

  0  0  0  0  0  0              0 V3000
M  V30 BEGIN CTAB
M  V30 COUNTS 24 26 0 0 0
M  V30 BEGIN ATOM
M  V30 1 Cl 6.6807 1.2024 0.0 0
M  V30 2 C 5.6807 1.2024 0.0 0
M  V30 3 C 5.1807 2.0684 0.0 0
M  V30 4 C 5.1807 0.3364 0.0 0
M  V30 5 Cl 5.6807 2.9344 0.0 0
M  V30 6 C 4.1807 2.0684 0.0 0
M  V30 7 C 4.1807 0.3364 0.0 0
M  V30 8 C 3.6807 1.2024 0.0 0
M  V30 9 N 3.5116 -0.4067 0.0 0
M  V30 10 N 2.7026 0.9945 0.0 0
M  V30 11 C 2.598 0.0 0.0 0
M  V30 12 C 1.9594 1.6636 0.0 0 CFG=1
M  V30 13 N 1.732 -0.5 0.0 0
M  V30 14 O 2.0639 2.6581 0.0 0
M  V30 15 C 0.9813 1.4557 0.0 0 CFG=1
M  V30 16 C 1.732 -1.5 0.0 0
M  V30 17 C 1.1504 3.0649 0.0 0 CFG=2
M  V30 18 O 0.5745 0.5421 0.0 0
M  V30 19 C 0.4813 2.3217 0.0 0 CFG=2
M  V30 20 C 2.598 -2.0 0.0 0
M  V30 21 C 0.866 -2.0 0.0 0
M  V30 22 C 0.9425 4.043 0.0 0
M  V30 23 O -0.5132 2.4262 0.0 0
M  V30 24 O -0.0085 4.352 0.0 0
M  V30 END ATOM
M  V30 BEGIN BOND
M  V30 1 1 1 2
M  V30 2 2 2 3
M  V30 3 1 2 4
M  V30 4 1 3 5
M  V30 5 1 3 6
M  V30 6 2 4 7
M  V30 7 2 6 8
M  V30 8 1 7 9
M  V30 9 1 8 10
M  V30 10 2 9 11
M  V30 11 1 12 10 CFG=3
M  V30 12 1 11 13
M  V30 13 1 12 14
M  V30 14 1 15 12
M  V30 15 1 13 16
M  V30 16 1 17 14
M  V30 17 1 15 18 CFG=1
M  V30 18 1 19 15
M  V30 19 1 16 20
M  V30 20 1 16 21
M  V30 21 1 17 22 CFG=3
M  V30 22 1 19 23 CFG=1
M  V30 23 1 22 24
M  V30 24 1 7 8
M  V30 25 1 10 11
M  V30 26 1 17 19
M  V30 END BOND
M  V30 BEGIN COLLECTION
M  V30 MDLV30/STERAC1 ATOMS=(4 12 15 17 19)
M  V30 END COLLECTION
M  V30 END CTAB
M  END
>  <Molecule Name>


>  <status>
-

>  <cas>
176161-24-3

>  <name>
MARIBAVIR

>  <ID>
2053

>  <Smiles>
CC(C)Nc(n([C@H]([C@H]1O)O[C@@H](CO)[C@@H]1O)c1c2)nc1cc(Cl)c2Cl

$$$$

Actelion Java MolfileCreator 2.0

  0  0  0  0  0  0              0 V3000
M  V30 BEGIN CTAB
M  V30 COUNTS 37 40 0 0 0
M  V30 BEGIN ATOM
M  V30 1 F 0.0 -2.25 0.0 0
M  V30 2 C 1.299 -3.0 0.0 0
M  V30 3 C 2.598 -2.25 0.0 0
M  V30 4 C 1.299 -4.5 0.0 0
M  V30 5 C 3.8971 -3.0 0.0 0
M  V30 6 C 2.598 -0.75 0.0 0 CFG=1
M  V30 7 C 2.598 -5.25 0.0 0
M  V30 8 C 3.8971 -4.5 0.0 0
M  V30 9 O 3.8971 -1.5 0.0 0
M  V30 10 C 3.8971 0.0 0.0 0
M  V30 11 C 1.299 0.0 0.0 0
M  V30 12 F 2.598 -6.75 0.0 0
M  V30 13 F 4.6471 1.299 0.0 0
M  V30 14 F 3.1471 1.299 0.0 0
M  V30 15 C 5.1961 -0.75 0.0 0
M  V30 16 N 1.299 1.5 0.0 0
M  V30 17 N 5.1961 -2.25 0.0 0
M  V30 18 C 6.4951 0.0 0.0 0
M  V30 19 N 0.0855 2.3816 0.0 0
M  V30 20 C 2.5125 2.3816 0.0 0
M  V30 21 C 6.4951 -3.0 0.0 0
M  V30 22 C 7.7942 -0.75 0.0 0
M  V30 23 N 0.549 3.8082 0.0 0
M  V30 24 N 2.049 3.8082 0.0 0
M  V30 25 C 7.7942 -2.25 0.0 0
M  V30 26 C 9.0932 -3.0 0.0 0
M  V30 27 C 9.0932 -4.5 0.0 0
M  V30 28 C 10.3923 -2.25 0.0 0
M  V30 29 C 10.3923 -5.25 0.0 0
M  V30 30 C 11.6913 -3.0 0.0 0
M  V30 31 C 11.6913 -4.5 0.0 0
M  V30 32 O 12.9903 -5.25 0.0 0
M  V30 33 C 12.9903 -6.75 0.0 0
M  V30 34 C 14.2894 -7.5 0.0 0
M  V30 35 F 15.0394 -6.2009 0.0 0
M  V30 36 F 15.5884 -8.25 0.0 0
M  V30 37 F 13.5394 -8.799 0.0 0
M  V30 END ATOM
M  V30 BEGIN BOND
M  V30 1 1 1 2
M  V30 2 2 2 3
M  V30 3 1 2 4
M  V30 4 1 3 5
M  V30 5 1 6 3
M  V30 6 2 4 7
M  V30 7 2 5 8
M  V30 8 1 6 9 CFG=1
M  V30 9 1 6 10
M  V30 10 1 6 11
M  V30 11 1 7 12
M  V30 12 1 10 13
M  V30 13 1 10 14
M  V30 14 1 10 15
M  V30 15 1 11 16
M  V30 16 2 15 17
M  V30 17 1 15 18
M  V30 18 1 16 19
M  V30 19 1 16 20
M  V30 20 1 17 21
M  V30 21 2 18 22
M  V30 22 2 19 23
M  V30 23 2 20 24
M  V30 24 2 21 25
M  V30 25 1 25 26
M  V30 26 2 26 27
M  V30 27 1 26 28
M  V30 28 1 27 29
M  V30 29 2 28 30
M  V30 30 2 29 31
M  V30 31 1 31 32
M  V30 32 1 32 33
M  V30 33 1 33 34
M  V30 34 1 34 35
M  V30 35 1 34 36
M  V30 36 1 34 37
M  V30 37 1 7 8
M  V30 38 1 22 25
M  V30 39 1 23 24
M  V30 40 1 30 31
M  V30 END BOND
M  V30 BEGIN COLLECTION
M  V30 MDLV30/STERAC1 ATOMS=(1 6)
M  V30 END COLLECTION
M  V30 END CTAB
M  END
>  <Molecule Name>


>  <status>
-

>  <cas>
1340593-59-0

>  <name>
OTESECONAZOLE

>  <ID>
2054

>  <Smiles>
OC(Cn1nnnc1)(C(c(cc1)ncc1-c(cc1)ccc1OCC(F)(F)F)(F)F)c(ccc(F)c1)c1F

$$$$

Actelion Java MolfileCreator 2.0

  0  0  0  0  0  0              0 V3000
M  V30 BEGIN CTAB
M  V30 COUNTS 24 27 0 0 0
M  V30 BEGIN ATOM
M  V30 1 O 2.598 -0.75 0.0 0
M  V30 2 C 1.299 0.0 0.0 0
M  V30 3 C 1.299 1.5 0.0 0 CFG=2
M  V30 4 C 0.0 -0.75 0.0 0
M  V30 5 C 2.5125 2.3816 0.0 0 CFG=2
M  V30 6 C 0.0855 2.3816 0.0 0
M  V30 7 C 2.049 3.8082 0.0 0 CFG=1
M  V30 8 C 3.9797 2.0698 0.0 0
M  V30 9 C 2.8244 0.9144 0.0 0
M  V30 10 C 0.549 3.8082 0.0 0
M  V30 11 C 3.0527 4.9229 0.0 0 CFG=1
M  V30 12 C 4.9834 3.1845 0.0 0
M  V30 13 C 4.5199 4.6111 0.0 0 CFG=2
M  V30 14 C 2.5892 6.3495 0.0 0
M  V30 15 C 5.5236 5.7258 0.0 0 CFG=2
M  V30 16 C 3.5929 7.4642 0.0 0
M  V30 17 C 5.0601 7.1524 0.0 0 CFG=1
M  V30 18 C 6.9908 5.4139 0.0 0
M  V30 19 C 5.9871 4.2992 0.0 0
M  V30 20 C 6.0638 8.2671 0.0 0
M  V30 21 C 7.9945 6.5286 0.0 0
M  V30 22 C 7.531 7.9552 0.0 0 CFG=1
M  V30 23 O 8.9576 8.4187 0.0 0
M  V30 24 C 7.8428 9.4224 0.0 0
M  V30 END ATOM
M  V30 BEGIN BOND
M  V30 1 2 1 2
M  V30 2 1 3 2 CFG=1
M  V30 3 1 2 4
M  V30 4 1 5 3
M  V30 5 1 3 6
M  V30 6 1 7 5
M  V30 7 1 5 8
M  V30 8 1 5 9 CFG=1
M  V30 9 1 6 10
M  V30 10 1 11 7
M  V30 11 1 8 12
M  V30 12 1 13 11
M  V30 13 1 11 14 CFG=3
M  V30 14 1 15 13
M  V30 15 1 14 16
M  V30 16 1 17 15
M  V30 17 1 15 18
M  V30 18 1 15 19 CFG=1
M  V30 19 1 17 20 CFG=1
M  V30 20 1 18 21
M  V30 21 1 22 20
M  V30 22 1 22 23 CFG=3
M  V30 23 1 22 24
M  V30 24 1 7 10 CFG=1
M  V30 25 1 13 12 CFG=1
M  V30 26 1 16 17
M  V30 27 1 21 22
M  V30 END BOND
M  V30 BEGIN COLLECTION
M  V30 MDLV30/STERAC1 ATOMS=(8 3 5 7 11 13 15 17 22)
M  V30 END COLLECTION
M  V30 END CTAB
M  END
>  <Molecule Name>


>  <status>
-

>  <cas>
38398-32-2

>  <name>
GANAXOLONE

>  <ID>
2055

>  <Smiles>
C[C@](CC1)([C@@H](CC2)[C@H](CC3)[C@H]1[C@@](C)(CC1)[C@@H]3C[C@]1(C)O)[C@H]2C(C)=O

$$$$

Actelion Java MolfileCreator 2.0

  0  0  0  0  0  0              0 V3000
M  V30 BEGIN CTAB
M  V30 COUNTS 32 36 0 0 0
M  V30 BEGIN ATOM
M  V30 1 S 2.598 -0.75 0.0 0
M  V30 2 O 1.848 -2.049 0.0 0
M  V30 3 O 3.348 -2.049 0.0 0
M  V30 4 N 1.299 0.0 0.0 0
M  V30 5 C 3.8971 0.0 0.0 0
M  V30 6 C 0.0 -0.75 0.0 0
M  V30 7 C 5.1961 -0.75 0.0 0
M  V30 8 C 3.8971 1.5 0.0 0
M  V30 9 C -1.299 0.0 0.0 0
M  V30 10 C 0.0 -2.25 0.0 0
M  V30 11 N 5.1961 -2.25 0.0 0
M  V30 12 C 6.4951 0.0 0.0 0
M  V30 13 C 5.1961 2.25 0.0 0
M  V30 14 C -2.598 -0.75 0.0 0
M  V30 15 C -1.299 -3.0 0.0 0
M  V30 16 C 6.4951 -3.0 0.0 0
M  V30 17 C 7.7942 -0.75 0.0 0
M  V30 18 C 6.4951 1.5 0.0 0
M  V30 19 C -2.598 -2.25 0.0 0
M  V30 20 C 7.7942 -2.25 0.0 0
M  V30 21 C -3.8971 -3.0 0.0 0
M  V30 22 O -5.1961 -2.25 0.0 0
M  V30 23 N -3.8971 -4.5 0.0 0
M  V30 24 C -5.1961 -5.25 0.0 0
M  V30 25 C -2.598 -5.25 0.0 0
M  V30 26 C -5.1961 -6.75 0.0 0
M  V30 27 C -2.598 -6.75 0.0 0
M  V30 28 N -3.8971 -7.5 0.0 0
M  V30 29 C -3.8971 -9.0 0.0 0
M  V30 30 C -2.598 -9.75 0.0 0
M  V30 31 C -1.848 -11.049 0.0 0
M  V30 32 C -1.098 -9.75 0.0 0
M  V30 END ATOM
M  V30 BEGIN BOND
M  V30 1 2 1 2
M  V30 2 2 1 3
M  V30 3 1 1 4
M  V30 4 1 1 5
M  V30 5 1 4 6
M  V30 6 1 5 7
M  V30 7 2 5 8
M  V30 8 2 6 9
M  V30 9 1 6 10
M  V30 10 2 7 11
M  V30 11 1 7 12
M  V30 12 1 8 13
M  V30 13 1 9 14
M  V30 14 2 10 15
M  V30 15 1 11 16
M  V30 16 2 12 17
M  V30 17 1 12 18
M  V30 18 2 14 19
M  V30 19 2 16 20
M  V30 20 1 19 21
M  V30 21 2 21 22
M  V30 22 1 21 23
M  V30 23 1 23 24
M  V30 24 1 23 25
M  V30 25 1 24 26
M  V30 26 1 25 27
M  V30 27 1 26 28
M  V30 28 1 28 29
M  V30 29 1 29 30
M  V30 30 1 30 31
M  V30 31 1 30 32
M  V30 32 2 13 18
M  V30 33 1 15 19
M  V30 34 1 17 20
M  V30 35 1 27 28
M  V30 36 1 31 32
M  V30 END BOND
M  V30 END CTAB
M  END
>  <Molecule Name>


>  <status>
-

>  <cas>
1260075-17-9

>  <name>
MITAPIVAT

>  <ID>
2056

>  <Smiles>
O=C(c(cc1)ccc1NS(c1cccc2cccnc12)(=O)=O)N1CCN(CC2CC2)CC1

$$$$

Actelion Java MolfileCreator 2.0

  0  0  0  0  0  0              0 V3000
M  V30 BEGIN CTAB
M  V30 COUNTS 85 88 0 0 0
M  V30 BEGIN ATOM
M  V30 1 S 0.8845 2.8099 0.0 0
M  V30 2 S 2.3277 3.2788 0.0 0
M  V30 3 C 0.569 1.3256 0.0 0
M  V30 4 C 2.6432 4.7632 0.0 0
M  V30 5 C 1.6967 0.3102 0.0 0 CFG=2
M  V30 6 C 4.0083 5.0592 0.0 0 CFG=2
M  V30 7 N 1.3812 -1.174 0.0 0
M  V30 8 C 3.0945 0.788 0.0 0
M  V30 9 N 4.4019 7.0691 0.0 0
M  V30 10 C 5.2142 4.2167 0.0 0
M  V30 11 C 2.5089 -2.1894 0.0 0
M  V30 12 O 3.3407 2.5405 0.0 0
M  V30 13 N 4.2676 -0.2362 0.0 0
M  V30 14 C 5.6684 7.3205 0.0 0
M  V30 15 O 6.3072 4.5397 0.0 0
M  V30 16 N 4.702 2.6749 0.0 0
M  V30 17 O 3.9521 -1.7205 0.0 0
M  V30 18 C 2.1934 -3.6738 0.0 0
M  V30 19 C 5.7623 0.2073 0.0 0 CFG=2
M  V30 20 O 6.6135 6.0851 0.0 0
M  V30 21 C 6.1865 8.929 0.0 0 CFG=1
M  V30 22 C 5.7565 1.5372 0.0 0 CFG=2
M  V30 23 C 3.7806 2.0846 0.0 0
M  V30 24 N 3.3211 -4.6892 0.0 0
M  V30 25 C 6.1563 1.9676 0.0 0
M  V30 26 C 6.8386 -0.7827 0.0 0
M  V30 27 N 7.8281 9.1785 0.0 0
M  V30 28 C 5.033 9.6851 0.0 0
M  V30 29 C 7.4396 1.6724 0.0 0
M  V30 30 C 5.0615 0.3817 0.0 0
M  V30 31 C 3.7938 0.6512 0.0 0
M  V30 32 C 3.0056 -6.1735 0.0 0
M  V30 33 O 5.2336 2.8303 0.0 0
M  V30 34 N 7.3937 2.3437 0.0 0
M  V30 35 C 6.5231 -2.267 0.0 0
M  V30 36 C 8.9236 8.0731 0.0 0
M  V30 37 C 5.3485 11.1694 0.0 0
M  V30 38 O 8.132 3.0822 0.0 0
M  V30 39 N 8.3152 0.5356 0.0 0
M  V30 40 O 1.5624 -6.6424 0.0 0
M  V30 41 C 4.1333 -7.1889 0.0 0
M  V30 42 C 7.7658 3.7029 0.0 0 CFG=2
M  V30 43 C 7.6508 -3.2824 0.0 0
M  V30 44 C 5.0799 -2.7359 0.0 0
M  V30 45 O 10.1748 8.5921 0.0 0
M  V30 46 C 8.528 6.4628 0.0 0 CFG=1
M  V30 47 O 6.7917 11.6383 0.0 0
M  V30 48 N 4.2207 12.1848 0.0 0
M  V30 49 C 9.8244 0.6942 0.0 0 CFG=2
M  V30 50 N 3.8178 -8.6732 0.0 0
M  V30 51 C 9.2283 4.1392 0.0 0
M  V30 52 C 6.8325 4.7586 0.0 0
M  V30 53 C 7.3353 -4.7667 0.0 0
M  V30 54 C 4.7644 -4.2202 0.0 0
M  V30 55 N 9.5438 5.6235 0.0 0
M  V30 56 C 7.3048 6.1811 0.0 0
M  V30 57 C 10.7163 -0.5333 0.0 0
M  V30 58 C 10.4416 2.0805 0.0 0
M  V30 59 C 4.9456 -9.6886 0.0 0
M  V30 60 O 10.356 3.1238 0.0 0
M  V30 61 C 6.906 6.1172 0.0 0
M  V30 62 C 5.8921 -5.2356 0.0 0
M  V30 63 C 6.1369 7.2369 0.0 0
M  V30 64 O 10.0991 -1.9196 0.0 0
M  V30 65 N 12.2255 -0.3747 0.0 0
M  V30 66 C 11.9507 2.2391 0.0 0
M  V30 67 O 6.3888 -9.2197 0.0 0
M  V30 68 C 4.6301 -11.1729 0.0 0
M  V30 69 C 5.7975 6.8466 0.0 0
M  V30 70 C 8.2328 6.9271 0.0 0
M  V30 71 O 5.5766 -6.72 0.0 0
M  V30 72 C 4.5742 6.5853 0.0 0
M  V30 73 C 13.1174 -1.6024 0.0 0
M  V30 74 C 12.568 3.6254 0.0 0
M  V30 75 N 5.7578 -12.1883 0.0 0
M  V30 76 C 6.0476 8.5699 0.0 0
M  V30 77 C 8.3947 8.2635 0.0 0
M  V30 78 O 4.2426 5.5777 0.0 0
M  V30 79 N 3.2742 7.7318 0.0 0
M  V30 80 C 14.6266 -1.4438 0.0 0
M  V30 81 C 14.0771 3.7841 0.0 0
M  V30 82 C 7.4142 9.3283 0.0 0
M  V30 83 O 15.5186 -2.6715 0.0 0
M  V30 84 N 15.2438 -0.0575 0.0 0
M  V30 85 N 14.6944 5.1703 0.0 0
M  V30 END ATOM
M  V30 BEGIN BOND
M  V30 1 1 1 2
M  V30 2 1 1 3
M  V30 3 1 2 4
M  V30 4 1 5 3
M  V30 5 1 6 4
M  V30 6 1 5 7 CFG=1
M  V30 7 1 5 8
M  V30 8 1 6 9
M  V30 9 1 6 10 CFG=3
M  V30 10 1 7 11
M  V30 11 2 8 12
M  V30 12 1 8 13
M  V30 13 1 9 14
M  V30 14 2 10 15
M  V30 15 1 10 16
M  V30 16 2 11 17
M  V30 17 1 11 18
M  V30 18 1 19 13
M  V30 19 2 14 20
M  V30 20 1 21 14
M  V30 21 1 22 16
M  V30 22 1 16 23
M  V30 23 1 18 24
M  V30 24 1 19 25
M  V30 25 1 19 26 CFG=3
M  V30 26 1 21 27
M  V30 27 1 21 28 CFG=3
M  V30 28 1 22 29 CFG=3
M  V30 29 1 22 30
M  V30 30 1 23 31
M  V30 31 1 24 32
M  V30 32 2 25 33
M  V30 33 1 25 34
M  V30 34 1 26 35
M  V30 35 1 27 36
M  V30 36 1 28 37
M  V30 37 2 29 38
M  V30 38 1 29 39
M  V30 39 2 32 40
M  V30 40 1 32 41
M  V30 41 1 42 34
M  V30 42 2 35 43
M  V30 43 1 35 44
M  V30 44 2 36 45
M  V30 45 1 46 36
M  V30 46 2 37 47
M  V30 47 1 37 48
M  V30 48 1 49 39 CFG=1
M  V30 49 1 41 50
M  V30 50 1 42 51
M  V30 51 1 42 52 CFG=1
M  V30 52 1 43 53
M  V30 53 2 44 54
M  V30 54 1 46 55
M  V30 55 1 46 56 CFG=1
M  V30 56 1 49 57
M  V30 57 1 49 58
M  V30 58 1 50 59
M  V30 59 2 51 60
M  V30 60 1 52 61
M  V30 61 2 53 62
M  V30 62 1 56 63
M  V30 63 2 57 64
M  V30 64 1 57 65
M  V30 65 1 58 66
M  V30 66 2 59 67
M  V30 67 1 59 68
M  V30 68 2 61 69
M  V30 69 1 61 70
M  V30 70 1 62 71
M  V30 71 1 63 72
M  V30 72 1 65 73
M  V30 73 1 66 74
M  V30 74 1 68 75
M  V30 75 1 69 76
M  V30 76 2 70 77
M  V30 77 2 72 78
M  V30 78 1 72 79
M  V30 79 1 73 80
M  V30 80 1 74 81
M  V30 81 2 76 82
M  V30 82 2 80 83
M  V30 83 1 80 84
M  V30 84 1 81 85
M  V30 85 1 30 31
M  V30 86 1 51 55
M  V30 87 1 54 62
M  V30 88 1 77 82
M  V30 END BOND
M  V30 BEGIN COLLECTION
M  V30 MDLV30/STERAC1 ATOMS=(8 5 6 19 21 22 42 46 49)
M  V30 END COLLECTION
M  V30 END CTAB
M  END
>  <Molecule Name>


>  <status>
-

>  <cas>
14636-12-5

>  <name>
TERLIPRESSIN

>  <ID>
2057

>  <Smiles>
NCCCC[C@@H](C(NCC(N)=O)=O)NC([C@H](CCC1)N1C([C@H](CSSC[C@@H](C(N[C@@H](Cc(cc1)ccc1O)C(N[C@@H](Cc1ccccc1)C(N[C@@H](CCC(N)=O)C(N[C@H]1CC(N)=O)=O)=O)=O)=O)NC(CNC(CNC(CN)=O)=O)=O)NC1=O)=O)=O

$$$$

Actelion Java MolfileCreator 2.0

  0  0  0  0  0  0              0 V3000
M  V30 BEGIN CTAB
M  V30 COUNTS 32 35 0 0 0
M  V30 BEGIN ATOM
M  V30 1 Cl 8.6602 2.4999 0.0 0
M  V30 2 C 8.6602 1.4999 0.0 0
M  V30 3 C 7.7942 0.9999 0.0 0
M  V30 4 C 9.5262 1.0 0.0 0
M  V30 5 C 7.7942 0.0 0.0 0
M  V30 6 C 6.9282 1.4999 0.0 0
M  V30 7 C 9.5262 0.0 0.0 0
M  V30 8 C 8.6602 -0.5 0.0 0
M  V30 9 C 6.0621 0.9999 0.0 0
M  V30 10 C 8.6602 -1.4999 0.0 0 CFG=1
M  V30 11 C 5.1961 1.4999 0.0 0
M  V30 12 C 6.0621 0.0 0.0 0
M  V30 13 O 7.7942 -1.9999 0.0 0
M  V30 14 C 9.5262 -1.9999 0.0 0 CFG=1
M  V30 15 C 4.3301 0.9999 0.0 0
M  V30 16 C 5.1961 -0.5 0.0 0
M  V30 17 C 7.7942 -2.9999 0.0 0 CFG=2
M  V30 18 O 10.3923 -1.4999 0.0 0
M  V30 19 C 9.5262 -3.0 0.0 0 CFG=1
M  V30 20 C 4.3301 0.0 0.0 0
M  V30 21 C 8.6602 -3.4999 0.0 0 CFG=1
M  V30 22 C 6.9282 -3.5 0.0 0
M  V30 23 O 10.3923 -3.5 0.0 0
M  V30 24 O 3.4641 -0.5 0.0 0
M  V30 25 O 8.6602 -4.4999 0.0 0
M  V30 26 O 6.9282 -4.5 0.0 0
M  V30 27 C 2.598 0.0 0.0 0
M  V30 28 C 1.732 -0.5 0.0 0
M  V30 29 O 0.866 0.0 0.0 0
M  V30 30 C 0.0 -0.5 0.0 0
M  V30 31 C -1.0 -0.4999 0.0 0
M  V30 32 C -0.5 -1.366 0.0 0
M  V30 END ATOM
M  V30 BEGIN BOND
M  V30 1 1 1 2
M  V30 2 2 2 3
M  V30 3 1 2 4
M  V30 4 1 3 5
M  V30 5 1 3 6
M  V30 6 2 4 7
M  V30 7 2 5 8
M  V30 8 1 6 9
M  V30 9 1 10 8 CFG=3
M  V30 10 2 9 11
M  V30 11 1 9 12
M  V30 12 1 10 13
M  V30 13 1 14 10
M  V30 14 1 11 15
M  V30 15 2 12 16
M  V30 16 1 17 13
M  V30 17 1 14 18 CFG=1
M  V30 18 1 19 14
M  V30 19 2 15 20
M  V30 20 1 21 17
M  V30 21 1 17 22 CFG=3
M  V30 22 1 19 23 CFG=3
M  V30 23 1 20 24
M  V30 24 1 21 25 CFG=1
M  V30 25 1 22 26
M  V30 26 1 24 27
M  V30 27 1 27 28
M  V30 28 1 28 29
M  V30 29 1 29 30
M  V30 30 1 30 31
M  V30 31 1 30 32
M  V30 32 1 7 8
M  V30 33 1 16 20
M  V30 34 1 19 21
M  V30 35 1 31 32
M  V30 END BOND
M  V30 BEGIN COLLECTION
M  V30 MDLV30/STERAC1 ATOMS=(5 10 14 17 19 21)
M  V30 END COLLECTION
M  V30 END CTAB
M  END
>  <Molecule Name>


>  <status>
-

>  <cas>
1118567-05-7

>  <name>
BEXAGLIFLOZIN

>  <ID>
2058

>  <Smiles>
OC[C@@H]([C@@H]([C@H]([C@@H]1O)O)O)O[C@@H]1c(cc1)cc(Cc(cc2)ccc2OCCOC2CC2)c1Cl

$$$$

Actelion Java MolfileCreator 2.0

  0  0  0  0  0  0              0 V3000
M  V30 BEGIN CTAB
M  V30 COUNTS 31 34 0 0 0
M  V30 BEGIN ATOM
M  V30 1 O 2.598 0.0 0.0 0
M  V30 2 C 1.732 -0.5 0.0 0
M  V30 3 N 1.732 -1.5 0.0 0
M  V30 4 C 0.866 0.0 0.0 0
M  V30 5 C 0.923 -2.0877 0.0 0
M  V30 6 C 2.541 -2.0877 0.0 0
M  V30 7 C 0.0 -0.5 0.0 0
M  V30 8 C 1.232 -3.0388 0.0 0 CFG=2
M  V30 9 C 2.232 -3.0388 0.0 0
M  V30 10 N 0.6442 -3.8478 0.0 0
M  V30 11 N -0.3557 -3.8478 0.0 0
M  V30 12 C 0.9532 -4.7989 0.0 0
M  V30 13 C -0.6647 -4.7989 0.0 0
M  V30 14 N 1.8668 -5.2056 0.0 0
M  V30 15 C 0.1442 -5.3867 0.0 0
M  V30 16 C -1.6158 -5.1079 0.0 0
M  V30 17 C 1.9713 -6.2001 0.0 0
M  V30 18 C 0.2487 -6.3812 0.0 0
M  V30 19 C -2.5668 -5.4169 0.0 0
M  V30 20 N 1.1623 -6.7879 0.0 0
M  V30 21 N -0.5602 -6.969 0.0 0
M  V30 22 C -3.5179 -5.7259 0.0 0
M  V30 23 C -4.261 -5.0568 0.0 0
M  V30 24 C -3.7258 -6.7041 0.0 0
M  V30 25 C -5.2121 -5.3658 0.0 0
M  V30 26 C -4.6768 -7.0131 0.0 0
M  V30 27 O -5.9552 -4.6967 0.0 0
M  V30 28 C -5.42 -6.344 0.0 0
M  V30 29 O -4.8848 -7.9912 0.0 0
M  V30 30 C -6.9063 -5.0057 0.0 0
M  V30 31 C -4.1416 -8.6604 0.0 0
M  V30 END ATOM
M  V30 BEGIN BOND
M  V30 1 2 1 2
M  V30 2 1 2 3
M  V30 3 1 2 4
M  V30 4 1 3 5
M  V30 5 1 3 6
M  V30 6 2 4 7
M  V30 7 1 8 5
M  V30 8 1 6 9
M  V30 9 1 8 10 CFG=3
M  V30 10 1 10 11
M  V30 11 1 10 12
M  V30 12 2 11 13
M  V30 13 2 12 14
M  V30 14 1 12 15
M  V30 15 1 13 16
M  V30 16 1 14 17
M  V30 17 2 15 18
M  V30 18 3 16 19
M  V30 19 2 17 20
M  V30 20 1 18 21
M  V30 21 1 19 22
M  V30 22 2 22 23
M  V30 23 1 22 24
M  V30 24 1 23 25
M  V30 25 2 24 26
M  V30 26 1 25 27
M  V30 27 2 25 28
M  V30 28 1 26 29
M  V30 29 1 27 30
M  V30 30 1 29 31
M  V30 31 1 8 9
M  V30 32 1 13 15
M  V30 33 1 18 20
M  V30 34 1 26 28
M  V30 END BOND
M  V30 BEGIN COLLECTION
M  V30 MDLV30/STERAC1 ATOMS=(1 8)
M  V30 END COLLECTION
M  V30 END CTAB
M  END
>  <Molecule Name>


>  <status>
-

>  <cas>
1448169-71-8

>  <name>
FUTIBATINIB

>  <ID>
2059

>  <Smiles>
COc1cc(C#Cc2nn(C(CC3)CN3C(C=C)=O)c3ncnc(N)c23)cc(OC)c1

$$$$

Actelion Java MolfileCreator 2.0

  0  0  0  0  0  0              0 V3000
M  V30 BEGIN CTAB
M  V30 COUNTS 34 37 0 0 0
M  V30 BEGIN ATOM
M  V30 1 O 6.0621 1.0 0.0 0
M  V30 2 C 5.1961 1.5 0.0 0
M  V30 3 N 5.1961 2.5 0.0 0
M  V30 4 C 4.3301 1.0 0.0 0
M  V30 5 C 6.0621 3.0 0.0 0
M  V30 6 N 3.4641 1.5 0.0 0
M  V30 7 C 4.3301 0.0 0.0 0
M  V30 8 H 6.5621 2.1339 0.0 0 MASS=2
M  V30 9 H 6.9282 3.5 0.0 0 MASS=2
M  V30 10 H 5.5621 3.866 0.0 0 MASS=2
M  V30 11 N 2.598 0.9999 0.0 0
M  V30 12 N 5.1961 -0.4999 0.0 0
M  V30 13 C 3.4641 -0.4999 0.0 0
M  V30 14 C 2.598 0.0 0.0 0
M  V30 15 C 5.1961 -1.4999 0.0 0
M  V30 16 N 1.732 -0.5 0.0 0
M  V30 17 C 6.0621 -1.9999 0.0 0
M  V30 18 C 4.3301 -1.9999 0.0 0
M  V30 19 C 0.866 0.0 0.0 0
M  V30 20 O 6.9282 -1.4999 0.0 0
M  V30 21 C 6.0621 -2.9999 0.0 0
M  V30 22 C 4.3301 -2.9999 0.0 0
M  V30 23 O 0.866 1.0 0.0 0
M  V30 24 C 0.0 -0.5 0.0 0
M  V30 25 C 7.7942 -1.9999 0.0 0
M  V30 26 C 6.9282 -3.4999 0.0 0
M  V30 27 C 5.1961 -3.4999 0.0 0
M  V30 28 C -1.0 -0.4999 0.0 0
M  V30 29 C -0.5 -1.366 0.0 0
M  V30 30 N 7.8417 -3.0932 0.0 0
M  V30 31 N 7.0327 -4.4945 0.0 0
M  V30 32 N 8.5108 -3.8364 0.0 0
M  V30 33 C 8.0108 -4.7024 0.0 0
M  V30 34 C 9.5054 -3.7318 0.0 0
M  V30 END ATOM
M  V30 BEGIN BOND
M  V30 1 2 1 2
M  V30 2 1 2 3
M  V30 3 1 2 4
M  V30 4 1 3 5
M  V30 5 2 4 6
M  V30 6 1 4 7
M  V30 7 1 5 8
M  V30 8 1 5 9
M  V30 9 1 5 10
M  V30 10 1 6 11
M  V30 11 1 7 12
M  V30 12 2 7 13
M  V30 13 2 11 14
M  V30 14 1 12 15
M  V30 15 1 14 16
M  V30 16 2 15 17
M  V30 17 1 15 18
M  V30 18 1 16 19
M  V30 19 1 17 20
M  V30 20 1 17 21
M  V30 21 2 18 22
M  V30 22 2 19 23
M  V30 23 1 19 24
M  V30 24 1 20 25
M  V30 25 1 21 26
M  V30 26 2 21 27
M  V30 27 1 24 28
M  V30 28 1 24 29
M  V30 29 2 26 30
M  V30 30 1 26 31
M  V30 31 1 30 32
M  V30 32 2 31 33
M  V30 33 1 32 34
M  V30 34 1 13 14
M  V30 35 1 22 27
M  V30 36 1 28 29
M  V30 37 1 32 33
M  V30 END BOND
M  V30 END CTAB
M  END
>  <Molecule Name>


>  <status>
-

>  <cas>
1609392-27-9

>  <name>
DEUCRAVACITINIB

>  <ID>
2060

>  <Smiles>
[2H]C([2H])([2H])NC(c(c(Nc(cccc1-c2nn(C)cn2)c1OC)c1)nnc1NC(C1CC1)=O)=O

$$$$

Actelion Java MolfileCreator 2.0

  0  0  0  0  0  0              0 V3000
M  V30 BEGIN CTAB
M  V30 COUNTS 33 36 0 0 0
M  V30 BEGIN ATOM
M  V30 1 O 6.0621 1.0 0.0 0
M  V30 2 C 5.1961 1.5 0.0 0
M  V30 3 N 5.1961 2.5 0.0 0
M  V30 4 C 4.3301 1.0 0.0 0
M  V30 5 C 6.0621 3.0 0.0 0
M  V30 6 N 3.4641 1.5 0.0 0
M  V30 7 C 4.3301 0.0 0.0 0
M  V30 8 H 6.5621 2.1339 0.0 0 MASS=2
M  V30 9 H 6.9282 3.5 0.0 0 MASS=2
M  V30 10 H 5.5621 3.866 0.0 0 MASS=2
M  V30 11 N 2.598 0.9999 0.0 0
M  V30 12 N 5.1961 -0.4999 0.0 0
M  V30 13 C 3.4641 -0.4999 0.0 0
M  V30 14 C 2.598 0.0 0.0 0
M  V30 15 C 5.1961 -1.4999 0.0 0
M  V30 16 N 1.732 -0.5 0.0 0
M  V30 17 C 6.0621 -1.9999 0.0 0
M  V30 18 C 4.3301 -1.9999 0.0 0
M  V30 19 C 0.866 0.0 0.0 0
M  V30 20 O 6.9282 -1.4999 0.0 0
M  V30 21 C 6.0621 -2.9999 0.0 0
M  V30 22 C 4.3301 -2.9999 0.0 0
M  V30 23 O 0.866 1.0 0.0 0
M  V30 24 C 0.0 -0.5 0.0 0
M  V30 25 C 7.7942 -1.9999 0.0 0
M  V30 26 C 6.9282 -3.4999 0.0 0
M  V30 27 C 5.1961 -3.4999 0.0 0
M  V30 28 C -1.0 -0.4999 0.0 0
M  V30 29 C -0.5 -1.366 0.0 0
M  V30 30 N 7.8417 -3.0932 0.0 0
M  V30 31 N 7.0327 -4.4945 0.0 0
M  V30 32 N 8.5108 -3.8364 0.0 0
M  V30 33 C 8.0108 -4.7024 0.0 0
M  V30 END ATOM
M  V30 BEGIN BOND
M  V30 1 2 1 2
M  V30 2 1 2 3
M  V30 3 1 2 4
M  V30 4 1 3 5
M  V30 5 2 4 6
M  V30 6 1 4 7
M  V30 7 1 5 8
M  V30 8 1 5 9
M  V30 9 1 5 10
M  V30 10 1 6 11
M  V30 11 1 7 12
M  V30 12 2 7 13
M  V30 13 2 11 14
M  V30 14 1 12 15
M  V30 15 1 14 16
M  V30 16 2 15 17
M  V30 17 1 15 18
M  V30 18 1 16 19
M  V30 19 1 17 20
M  V30 20 1 17 21
M  V30 21 2 18 22
M  V30 22 2 19 23
M  V30 23 1 19 24
M  V30 24 1 20 25
M  V30 25 1 21 26
M  V30 26 2 21 27
M  V30 27 1 24 28
M  V30 28 1 24 29
M  V30 29 2 26 30
M  V30 30 1 26 31
M  V30 31 1 30 32
M  V30 32 2 31 33
M  V30 33 1 13 14
M  V30 34 1 22 27
M  V30 35 1 28 29
M  V30 36 1 32 33
M  V30 END BOND
M  V30 END CTAB
M  END
>  <Molecule Name>


>  <status>
-

>  <cas>
1609393-48-7

>  <name>
M DEUCRAVACITINIB

>  <ID>
2061

>  <Smiles>
[2H]C([2H])([2H])NC(c(c(Nc(cccc1-c2n[nH]cn2)c1OC)c1)nnc1NC(C1CC1)=O)=O

$$$$

Actelion Java MolfileCreator 2.0

  0  0  0  0  0  0              0 V3000
M  V30 BEGIN CTAB
M  V30 COUNTS 37 40 0 0 0
M  V30 BEGIN ATOM
M  V30 1 S 12.9903 -2.25 0.0 0
M  V30 2 O 12.2404 -3.549 0.0 0
M  V30 3 O 11.4904 -2.2499 0.0 0
M  V30 4 N 12.9903 -0.75 0.0 0
M  V30 5 C 14.2894 -3.0 0.0 0
M  V30 6 C 11.6913 0.0 0.0 0
M  V30 7 C 14.2894 0.0 0.0 0
M  V30 8 C 15.5884 -2.25 0.0 0
M  V30 9 C 14.2894 -4.5 0.0 0
M  V30 10 C 10.3923 -0.75 0.0 0
M  V30 11 C 14.2894 1.5 0.0 0
M  V30 12 N 16.8875 -3.0 0.0 0
M  V30 13 C 15.5884 -5.25 0.0 0
M  V30 14 N 10.3923 -2.25 0.0 0
M  V30 15 C 9.0932 0.0 0.0 0
M  V30 16 C 15.5884 2.25 0.0 0
M  V30 17 C 12.9903 2.25 0.0 0
M  V30 18 C 16.8875 -4.5 0.0 0
M  V30 19 C 9.0932 -3.0 0.0 0
M  V30 20 C 7.7942 -0.75 0.0 0
M  V30 21 C 15.5884 3.75 0.0 0
M  V30 22 C 12.9903 3.75 0.0 0
M  V30 23 N 9.0932 -4.5 0.0 0
M  V30 24 C 7.7942 -2.25 0.0 0
M  V30 25 C 14.2894 4.5 0.0 0
M  V30 26 C 10.3923 -5.25 0.0 0
M  V30 27 N 14.2894 6.0 0.0 0
M  V30 28 C 10.3923 -6.75 0.0 0
M  V30 29 N 15.5029 6.8816 0.0 0
M  V30 30 C 13.0759 6.8816 0.0 0
M  V30 31 O 9.0932 -7.5 0.0 0
M  V30 32 O 11.6913 -7.5 0.0 0
M  V30 33 C 15.0394 8.3082 0.0 0
M  V30 34 C 13.5394 8.3082 0.0 0
M  V30 35 C 11.6913 -9.0 0.0 0
M  V30 36 C 10.3923 -9.75 0.0 0
M  V30 37 C 12.9903 -9.75 0.0 0
M  V30 END ATOM
M  V30 BEGIN BOND
M  V30 1 2 1 2
M  V30 2 2 1 3
M  V30 3 1 1 4
M  V30 4 1 1 5
M  V30 5 1 4 6
M  V30 6 1 4 7
M  V30 7 2 5 8
M  V30 8 1 5 9
M  V30 9 1 6 10
M  V30 10 1 7 11
M  V30 11 1 8 12
M  V30 12 2 9 13
M  V30 13 2 10 14
M  V30 14 1 10 15
M  V30 15 2 11 16
M  V30 16 1 11 17
M  V30 17 2 12 18
M  V30 18 1 14 19
M  V30 19 2 15 20
M  V30 20 1 16 21
M  V30 21 2 17 22
M  V30 22 1 19 23
M  V30 23 2 19 24
M  V30 24 2 21 25
M  V30 25 1 23 26
M  V30 26 1 25 27
M  V30 27 1 26 28
M  V30 28 1 27 29
M  V30 29 1 27 30
M  V30 30 2 28 31
M  V30 31 1 28 32
M  V30 32 2 29 33
M  V30 33 2 30 34
M  V30 34 1 32 35
M  V30 35 1 35 36
M  V30 36 1 35 37
M  V30 37 1 13 18
M  V30 38 1 20 24
M  V30 39 1 22 25
M  V30 40 1 33 34
M  V30 END BOND
M  V30 END CTAB
M  END
>  <Molecule Name>


>  <status>
DISCONTINUED

>  <cas>
1187451-19-9

>  <name>
OMIDENEPAG ISOPROPYL

>  <ID>
2062

>  <Smiles>
CC(C)OC(CNc1cccc(CN(Cc(cc2)ccc2-n2nccc2)S(c2cnccc2)(=O)=O)n1)=O

$$$$

Actelion Java MolfileCreator 2.0

  0  0  0  0  0  0              0 V3000
M  V30 BEGIN CTAB
M  V30 COUNTS 34 37 0 0 0
M  V30 BEGIN ATOM
M  V30 1 S 3.8971 0.0 0.0 0
M  V30 2 O 5.397 0.0 0.0 0
M  V30 3 O 4.647 -1.299 0.0 0
M  V30 4 N 2.598 -0.75 0.0 0
M  V30 5 C 3.8971 1.5 0.0 0
M  V30 6 C 2.598 -2.25 0.0 0
M  V30 7 C 1.299 0.0 0.0 0
M  V30 8 C 2.598 2.25 0.0 0
M  V30 9 C 5.1961 2.25 0.0 0
M  V30 10 C 3.8971 -3.0 0.0 0
M  V30 11 C 0.0 -0.75 0.0 0
M  V30 12 N 2.598 3.75 0.0 0
M  V30 13 C 5.1961 3.75 0.0 0
M  V30 14 N 3.8971 -4.5 0.0 0
M  V30 15 C 5.1961 -2.25 0.0 0
M  V30 16 C -1.299 0.0 0.0 0
M  V30 17 C 0.0 -2.25 0.0 0
M  V30 18 C 3.8971 4.5 0.0 0
M  V30 19 C 5.1961 -5.25 0.0 0
M  V30 20 C 6.4951 -3.0 0.0 0
M  V30 21 C -2.598 -0.75 0.0 0
M  V30 22 C -1.299 -3.0 0.0 0
M  V30 23 N 5.1961 -6.75 0.0 0
M  V30 24 C 6.4951 -4.5 0.0 0
M  V30 25 C -2.598 -2.25 0.0 0
M  V30 26 C 6.4951 -7.5 0.0 0
M  V30 27 N -3.8971 -3.0 0.0 0
M  V30 28 C 6.4951 -9.0 0.0 0
M  V30 29 N -5.2674 -2.3898 0.0 0
M  V30 30 C -4.0539 -4.4917 0.0 0
M  V30 31 O 5.1961 -9.75 0.0 0
M  V30 32 O 7.7942 -9.75 0.0 0 CHG=-1
M  V30 33 C -6.2711 -3.5046 0.0 0
M  V30 34 C -5.5211 -4.8036 0.0 0
M  V30 END ATOM
M  V30 BEGIN BOND
M  V30 1 2 1 2
M  V30 2 2 1 3
M  V30 3 1 1 4
M  V30 4 1 1 5
M  V30 5 1 4 6
M  V30 6 1 4 7
M  V30 7 2 5 8
M  V30 8 1 5 9
M  V30 9 1 6 10
M  V30 10 1 7 11
M  V30 11 1 8 12
M  V30 12 2 9 13
M  V30 13 2 10 14
M  V30 14 1 10 15
M  V30 15 2 11 16
M  V30 16 1 11 17
M  V30 17 2 12 18
M  V30 18 1 14 19
M  V30 19 2 15 20
M  V30 20 1 16 21
M  V30 21 2 17 22
M  V30 22 1 19 23
M  V30 23 2 19 24
M  V30 24 2 21 25
M  V30 25 1 23 26
M  V30 26 1 25 27
M  V30 27 1 26 28
M  V30 28 1 27 29
M  V30 29 1 27 30
M  V30 30 2 28 31
M  V30 31 1 28 32
M  V30 32 2 29 33
M  V30 33 2 30 34
M  V30 34 1 13 18
M  V30 35 1 20 24
M  V30 36 1 22 25
M  V30 37 1 33 34
M  V30 END BOND
M  V30 END CTAB
M  END
>  <Molecule Name>


>  <status>
-

>  <cas>
1187451-41-7

>  <name>
OMIDENEPAG

>  <ID>
2063

>  <Smiles>
[O-]C(CNc1cccc(CN(Cc(cc2)ccc2-n2nccc2)S(c2cnccc2)(=O)=O)n1)=O

$$$$

Actelion Java MolfileCreator 2.0

  0  0  0  0  0  0              0 V3000
M  V30 BEGIN CTAB
M  V30 COUNTS 25 27 0 0 0
M  V30 BEGIN ATOM
M  V30 1 Cl 6.4951 6.0 0.0 0
M  V30 2 C 6.4951 4.5 0.0 0
M  V30 3 C 5.1961 3.75 0.0 0
M  V30 4 C 7.7942 3.75 0.0 0
M  V30 5 C 5.1961 2.25 0.0 0
M  V30 6 C 7.7942 2.25 0.0 0
M  V30 7 C 6.4951 1.5 0.0 0
M  V30 8 C 3.8971 1.4999 0.0 0
M  V30 9 N 6.4951 0.0 0.0 0
M  V30 10 C 3.8971 0.0 0.0 0
M  V30 11 C 5.1961 -0.7499 0.0 0
M  V30 12 C 2.598 -0.75 0.0 0 CFG=1
M  V30 13 O 5.1961 -2.25 0.0 0
M  V30 14 N 1.299 0.0 0.0 0
M  V30 15 C 2.598 -2.25 0.0 0
M  V30 16 C 0.0 -0.75 0.0 0
M  V30 17 C -1.299 0.0 0.0 0
M  V30 18 C 0.0 -2.2499 0.0 0
M  V30 19 O -1.299 1.5 0.0 0
M  V30 20 N -2.598 -0.7499 0.0 0
M  V30 21 C -1.299 -2.9999 0.0 0
M  V30 22 C -2.598 -2.2499 0.0 0
M  V30 23 C -3.8971 0.0 0.0 0
M  V30 24 C -3.8971 -2.9999 0.0 0
M  V30 25 N -5.1961 -3.7499 0.0 0
M  V30 END ATOM
M  V30 BEGIN BOND
M  V30 1 1 1 2
M  V30 2 2 2 3
M  V30 3 1 2 4
M  V30 4 1 3 5
M  V30 5 2 4 6
M  V30 6 2 5 7
M  V30 7 1 5 8
M  V30 8 1 7 9
M  V30 9 2 8 10
M  V30 10 1 9 11
M  V30 11 1 12 10
M  V30 12 2 11 13
M  V30 13 1 12 14 CFG=3
M  V30 14 1 12 15
M  V30 15 1 14 16
M  V30 16 1 16 17
M  V30 17 2 16 18
M  V30 18 2 17 19
M  V30 19 1 17 20
M  V30 20 1 18 21
M  V30 21 1 20 22
M  V30 22 1 20 23
M  V30 23 1 22 24
M  V30 24 3 24 25
M  V30 25 1 6 7
M  V30 26 1 10 11
M  V30 27 2 21 22
M  V30 END BOND
M  V30 BEGIN COLLECTION
M  V30 MDLV30/STERAC1 ATOMS=(1 12)
M  V30 END COLLECTION
M  V30 END CTAB
M  END
>  <Molecule Name>


>  <status>
-

>  <cas>
1887014-12-1

>  <name>
OLUTASIDENIB

>  <ID>
2064

>  <Smiles>
CC(C1=Cc(cc(cc2)Cl)c2NC1=O)NC1=CC=C(C#N)N(C)C1=O

$$$$

Actelion Java MolfileCreator 2.0

  0  0  0  0  0  0              0 V3000
M  V30 BEGIN CTAB
M  V30 COUNTS 21 23 0 0 0
M  V30 BEGIN ATOM
M  V30 1 O 3.8971 0.0 0.0 0
M  V30 2 C 2.598 -0.75 0.0 0
M  V30 3 N 2.598 -2.25 0.0 0
M  V30 4 C 1.299 0.0 0.0 0
M  V30 5 C 1.299 -3.0 0.0 0 CFG=1
M  V30 6 C 3.8971 -2.9999 0.0 0
M  V30 7 C 0.0 -0.75 0.0 0
M  V30 8 C 1.299 -4.5 0.0 0
M  V30 9 C 0.0 -2.25 0.0 0
M  V30 10 C 3.8971 -4.4999 0.0 0 CFG=2
M  V30 11 C 2.598 -5.25 0.0 0
M  V30 12 N 5.1961 -5.2499 0.0 0
M  V30 13 C 6.4951 -4.4999 0.0 0
M  V30 14 N 7.7942 -5.2499 0.0 0
M  V30 15 C 6.4951 -2.9999 0.0 0
M  V30 16 C 9.0932 -4.4999 0.0 0
M  V30 17 C 7.7942 -2.2499 0.0 0
M  V30 18 C 5.3804 -1.9963 0.0 0
M  V30 19 N 9.0932 -2.9999 0.0 0
M  V30 20 N 7.4823 -0.7827 0.0 0
M  V30 21 C 5.9905 -0.6259 0.0 0
M  V30 END ATOM
M  V30 BEGIN BOND
M  V30 1 2 1 2
M  V30 2 1 2 3
M  V30 3 1 2 4
M  V30 4 1 5 3
M  V30 5 1 3 6
M  V30 6 2 4 7
M  V30 7 1 5 8
M  V30 8 1 5 9 CFG=1
M  V30 9 1 10 6
M  V30 10 1 8 11
M  V30 11 1 10 12 CFG=1
M  V30 12 1 12 13
M  V30 13 2 13 14
M  V30 14 1 13 15
M  V30 15 1 14 16
M  V30 16 2 15 17
M  V30 17 1 15 18
M  V30 18 2 16 19
M  V30 19 1 17 20
M  V30 20 2 18 21
M  V30 21 1 10 11
M  V30 22 1 17 19
M  V30 23 1 20 21
M  V30 END BOND
M  V30 BEGIN COLLECTION
M  V30 MDLV30/STERAC1 ATOMS=(2 5 10)
M  V30 END COLLECTION
M  V30 END CTAB
M  END
>  <Molecule Name>


>  <status>
-

>  <cas>
1792180-81-4

>  <name>
RITLECITINIB

>  <ID>
2065

>  <Smiles>
C[C@H](CC[C@@H](C1)Nc2ncnc3c2cc[nH]3)N1C(C=C)=O

$$$$

Actelion Java MolfileCreator 2.0

  0  0  0  0  0  0              0 V3000
M  V30 BEGIN CTAB
M  V30 COUNTS 17 18 0 0 0
M  V30 BEGIN ATOM
M  V30 1 O -3.907 -3.0076 0.0 0
M  V30 2 C -2.6047 -2.2557 0.0 0
M  V30 3 N -1.3023 -3.0076 0.0 0
M  V30 4 N -2.6047 -0.7519 0.0 0
M  V30 5 C 0.0 -2.2557 0.0 0
M  V30 6 C -1.3023 0.0 0.0 0
M  V30 7 O 1.1726 -3.3581 0.0 0
M  V30 8 C 0.0 -0.7519 0.0 0
M  V30 9 O -1.3023 1.5038 0.0 0
M  V30 10 C 1.3023 -1.5038 0.0 0
M  V30 11 C 1.3023 0.0 0.0 0
M  V30 12 C 1.4419 -2.8591 0.0 0
M  V30 13 C 2.6047 -0.7519 0.0 0
M  V30 14 C 1.3023 1.5038 0.0 0
M  V30 15 C 2.6047 -3.7595 0.0 0
M  V30 16 C 3.907 -1.5038 0.0 0
M  V30 17 C 3.907 -3.0076 0.0 0
M  V30 END ATOM
M  V30 BEGIN BOND
M  V30 1 2 1 2
M  V30 2 1 2 3
M  V30 3 1 2 4
M  V30 4 1 3 5
M  V30 5 1 4 6
M  V30 6 2 5 7
M  V30 7 1 5 8
M  V30 8 2 6 9
M  V30 9 1 8 10
M  V30 10 1 8 11
M  V30 11 2 10 12
M  V30 12 1 10 13
M  V30 13 1 11 14
M  V30 14 1 12 15
M  V30 15 2 13 16
M  V30 16 2 15 17
M  V30 17 1 6 8
M  V30 18 1 16 17
M  V30 END BOND
M  V30 END CTAB
M  END
>  <Molecule Name>


>  <status>
-

>  <cas>
50-06-6

>  <name>
PHENOBARBITAL

>  <ID>
2066

>  <Smiles>
CCC(c1ccccc1)(C(NC(N1)=O)=O)C1=O

$$$$

Actelion Java MolfileCreator 2.0

  0  0  0  0  0  0              0 V3000
M  V30 BEGIN CTAB
M  V30 COUNTS 64 70 0 0 0
M  V30 BEGIN ATOM
M  V30 1 Cl 11.6913 0.0 0.0 0
M  V30 2 C 10.3923 -0.75 0.0 0
M  V30 3 C 10.3923 -2.25 0.0 0
M  V30 4 C 9.0932 0.0 0.0 0
M  V30 5 C 11.507 -3.2536 0.0 0
M  V30 6 C 9.0932 -3.0 0.0 0
M  V30 7 C 7.7942 -0.75 0.0 0
M  V30 8 N 10.8969 -4.624 0.0 0
M  V30 9 N 12.9742 -2.9418 0.0 0
M  V30 10 N 9.4051 -4.4672 0.0 0
M  V30 11 C 7.7942 -2.25 0.0 0
M  V30 12 S 13.9779 -4.0565 0.0 0
M  V30 13 C 8.4014 -5.5819 0.0 0
M  V30 14 C 6.4951 -3.0 0.0 0
M  V30 15 O 15.0926 -3.0528 0.0 0
M  V30 16 O 12.8632 -5.0602 0.0 0
M  V30 17 C 14.9816 -5.1712 0.0 0
M  V30 18 C 8.8649 -7.0085 0.0 0
M  V30 19 C 5.1961 -2.25 0.0 0
M  V30 20 C 6.4951 -4.5 0.0 0
M  V30 21 F 10.2915 -6.545 0.0 0
M  V30 22 F 9.3285 -8.4351 0.0 0
M  V30 23 F 7.4383 -7.472 0.0 0
M  V30 24 N 3.8971 -3.0 0.0 0
M  V30 25 C 5.1961 -0.75 0.0 0 CFG=1
M  V30 26 C 5.1961 -5.25 0.0 0
M  V30 27 C 3.8971 -4.5 0.0 0
M  V30 28 N 3.8971 0.0 0.0 0
M  V30 29 C 6.4951 0.0 0.0 0
M  V30 30 C 2.598 -5.25 0.0 0
M  V30 31 C 2.598 -0.75 0.0 0
M  V30 32 C 6.4951 1.5 0.0 0
M  V30 33 C 1.299 -6.0 0.0 0
M  V30 34 O 2.598 -2.25 0.0 0
M  V30 35 C 1.299 0.0 0.0 0
M  V30 36 C 5.1961 2.25 0.0 0
M  V30 37 C 7.7942 2.25 0.0 0
M  V30 38 C 0.0 -6.75 0.0 0
M  V30 39 N 0.0 -0.75 0.0 0
M  V30 40 C 5.1961 3.75 0.0 0
M  V30 41 C 7.7942 3.75 0.0 0
M  V30 42 S 1.0606 -7.8106 0.0 0
M  V30 43 C -1.4999 -6.7499 0.0 0
M  V30 44 C -0.7499 -8.049 0.0 0
M  V30 45 N -0.1567 -2.2417 0.0 0
M  V30 46 C -1.3703 -0.1398 0.0 0
M  V30 47 F 3.8971 4.5 0.0 0
M  V30 48 C 6.4951 4.5 0.0 0
M  V30 49 F 9.0932 4.5 0.0 0
M  V30 50 O 0.0 -8.8713 0.0 0
M  V30 51 O 2.1213 -6.7499 0.0 0
M  V30 52 C 2.1213 -8.8713 0.0 0
M  V30 53 C -1.624 -2.5536 0.0 0
M  V30 54 C -2.374 -1.2546 0.0 0
M  V30 55 C -2.1203 1.1591 0.0 0
M  V30 56 C -2.2341 -3.9239 0.0 0
M  V30 57 C -3.7443 -0.6445 0.0 0 CFG=2
M  V30 58 F -0.9068 2.0407 0.0 0
M  V30 59 F -2.2771 2.6508 0.0 0
M  V30 60 C -3.5875 0.8472 0.0 0 CFG=1
M  V30 61 F -0.8638 -4.534 0.0 0
M  V30 62 F -2.8442 -5.2942 0.0 0
M  V30 63 F -3.6044 -3.3138 0.0 0
M  V30 64 C -4.9578 0.2371 0.0 0
M  V30 END ATOM
M  V30 BEGIN BOND
M  V30 1 1 1 2
M  V30 2 2 2 3
M  V30 3 1 2 4
M  V30 4 1 3 5
M  V30 5 1 3 6
M  V30 6 2 4 7
M  V30 7 2 5 8
M  V30 8 1 5 9
M  V30 9 1 6 10
M  V30 10 2 6 11
M  V30 11 1 9 12
M  V30 12 1 10 13
M  V30 13 1 11 14
M  V30 14 2 12 15
M  V30 15 2 12 16
M  V30 16 1 12 17
M  V30 17 1 13 18
M  V30 18 2 14 19
M  V30 19 1 14 20
M  V30 20 1 18 21
M  V30 21 1 18 22
M  V30 22 1 18 23
M  V30 23 1 19 24
M  V30 24 1 25 19
M  V30 25 2 20 26
M  V30 26 2 24 27
M  V30 27 1 25 28 CFG=1
M  V30 28 1 25 29
M  V30 29 1 27 30
M  V30 30 1 28 31
M  V30 31 1 29 32
M  V30 32 3 30 33
M  V30 33 2 31 34
M  V30 34 1 31 35
M  V30 35 2 32 36
M  V30 36 1 32 37
M  V30 37 1 33 38
M  V30 38 1 35 39
M  V30 39 1 36 40
M  V30 40 2 37 41
M  V30 41 1 38 42
M  V30 42 1 38 43
M  V30 43 1 38 44
M  V30 44 1 39 45
M  V30 45 1 39 46
M  V30 46 1 40 47
M  V30 47 2 40 48
M  V30 48 1 41 49
M  V30 49 2 42 50
M  V30 50 2 42 51
M  V30 51 1 42 52
M  V30 52 2 45 53
M  V30 53 2 46 54
M  V30 54 1 46 55
M  V30 55 1 53 56
M  V30 56 1 57 54
M  V30 57 1 55 58
M  V30 58 1 55 59
M  V30 59 1 60 55
M  V30 60 1 56 61
M  V30 61 1 56 62
M  V30 62 1 56 63
M  V30 63 1 57 64 CFG=1
M  V30 64 1 7 11
M  V30 65 1 8 10
M  V30 66 1 26 27
M  V30 67 1 41 48
M  V30 68 1 53 54
M  V30 69 1 57 60
M  V30 70 1 60 64 CFG=1
M  V30 END BOND
M  V30 BEGIN COLLECTION
M  V30 MDLV30/STERAC1 ATOMS=(3 25 57 60)
M  V30 END COLLECTION
M  V30 END CTAB
M  END
>  <Molecule Name>


>  <status>
-

>  <cas>
2189684-44-2

>  <name>
LENACAPAVIR

>  <ID>
2067

>  <Smiles>
CC(C)(C#Cc(cc1)nc([C@H](Cc2cc(F)cc(F)c2)NC(Cn2nc(C(F)(F)F)c([C@@H]3[C@H]4C3)c2C4(F)F)=O)c1-c(ccc(Cl)c12)c2n(CC(F)(F)F)nc1NS(C)(=O)=O)S(C)(=O)=O

$$$$

Actelion Java MolfileCreator 2.0

  0  0  0  0  0  0              0 V3000
M  V30 BEGIN CTAB
M  V30 COUNTS 34 36 0 0 0
M  V30 BEGIN ATOM
M  V30 1 F 6.0621 0.0 0.0 0
M  V30 2 C 5.1961 -0.5 0.0 0
M  V30 3 C 4.3301 0.0 0.0 0
M  V30 4 C 5.1961 -1.4999 0.0 0
M  V30 5 C 3.4641 -0.5 0.0 0
M  V30 6 C 4.3301 -1.9999 0.0 0
M  V30 7 C 3.4641 -1.4999 0.0 0
M  V30 8 C 2.598 0.0 0.0 0
M  V30 9 O 2.598 -2.0 0.0 0
M  V30 10 O 2.598 1.0 0.0 0
M  V30 11 N 1.732 -0.5 0.0 0
M  V30 12 C 2.598 -3.0 0.0 0
M  V30 13 C 0.866 0.0 0.0 0
M  V30 14 C 0.0 -0.5 0.0 0
M  V30 15 C -0.866 0.0 0.0 0
M  V30 16 C 0.0 -1.4999 0.0 0
M  V30 17 C -1.732 -0.4999 0.0 0
M  V30 18 C -0.866 -1.9999 0.0 0
M  V30 19 C -1.732 -1.4999 0.0 0
M  V30 20 C -2.598 -1.9999 0.0 0
M  V30 21 N -3.5116 -1.5932 0.0 0
M  V30 22 C -2.7026 -2.9945 0.0 0
M  V30 23 N -4.1807 -2.3364 0.0 0
M  V30 24 C -3.6807 -3.2024 0.0 0
M  V30 25 C -1.9594 -3.6636 0.0 0
M  V30 26 C -5.1752 -2.2318 0.0 0 CFG=2
M  V30 27 N -4.0874 -4.1159 0.0 0
M  V30 28 O -2.1673 -4.6418 0.0 0
M  V30 29 N -1.0084 -3.3546 0.0 0
M  V30 30 C -5.582 -1.3183 0.0 0
M  V30 31 C -5.763 -3.0408 0.0 0
M  V30 32 F -6.4955 -1.725 0.0 0
M  V30 33 F -5.9887 -0.4047 0.0 0
M  V30 34 F -4.6684 -0.9115 0.0 0
M  V30 END ATOM
M  V30 BEGIN BOND
M  V30 1 1 1 2
M  V30 2 2 2 3
M  V30 3 1 2 4
M  V30 4 1 3 5
M  V30 5 2 4 6
M  V30 6 2 5 7
M  V30 7 1 5 8
M  V30 8 1 7 9
M  V30 9 2 8 10
M  V30 10 1 8 11
M  V30 11 1 9 12
M  V30 12 1 11 13
M  V30 13 1 13 14
M  V30 14 2 14 15
M  V30 15 1 14 16
M  V30 16 1 15 17
M  V30 17 2 16 18
M  V30 18 2 17 19
M  V30 19 1 19 20
M  V30 20 2 20 21
M  V30 21 1 20 22
M  V30 22 1 21 23
M  V30 23 2 22 24
M  V30 24 1 22 25
M  V30 25 1 26 23 CFG=1
M  V30 26 1 24 27
M  V30 27 2 25 28
M  V30 28 1 25 29
M  V30 29 1 26 30
M  V30 30 1 26 31
M  V30 31 1 30 32
M  V30 32 1 30 33
M  V30 33 1 30 34
M  V30 34 1 6 7
M  V30 35 1 18 19
M  V30 36 1 23 24
M  V30 END BOND
M  V30 BEGIN COLLECTION
M  V30 MDLV30/STERAC1 ATOMS=(1 26)
M  V30 END COLLECTION
M  V30 END CTAB
M  END
>  <Molecule Name>


>  <status>
-

>  <cas>
2101700-15-4

>  <name>
PIRTOBRUTINIB

>  <ID>
2068

>  <Smiles>
CC(C(F)(F)F)n(c(N)c1C(N)=O)nc1-c1ccc(CNC(c(cc(cc2)F)c2OC)=O)cc1

$$$$

Actelion Java MolfileCreator 2.0

  0  0  0  0  0  0              0 V3000
M  V30 BEGIN CTAB
M  V30 COUNTS 28 30 0 0 0
M  V30 BEGIN ATOM
M  V30 1 Cl 6.9282 2.5 0.0 0
M  V30 2 C 6.9282 1.5 0.0 0
M  V30 3 C 6.0621 1.0 0.0 0
M  V30 4 C 7.7942 1.0 0.0 0
M  V30 5 C 6.0621 0.0 0.0 0
M  V30 6 C 5.1961 1.5 0.0 0
M  V30 7 C 7.7942 0.0 0.0 0
M  V30 8 C 6.9282 -0.4999 0.0 0
M  V30 9 C 4.3301 1.0 0.0 0
M  V30 10 C 6.9282 -1.4999 0.0 0 CFG=1
M  V30 11 C 3.4641 1.5 0.0 0
M  V30 12 C 4.3301 0.0 0.0 0
M  V30 13 O 6.0621 -1.9999 0.0 0
M  V30 14 C 7.7942 -1.9999 0.0 0 CFG=1
M  V30 15 C 2.598 0.9999 0.0 0
M  V30 16 C 3.4641 -0.4999 0.0 0
M  V30 17 C 6.0621 -2.9999 0.0 0 CFG=1
M  V30 18 O 8.6602 -1.4999 0.0 0
M  V30 19 C 7.7942 -2.9999 0.0 0 CFG=1
M  V30 20 C 2.598 0.0 0.0 0
M  V30 21 S 5.1961 -3.4999 0.0 0
M  V30 22 C 6.9282 -3.4999 0.0 0 CFG=1
M  V30 23 O 8.6602 -3.4999 0.0 0
M  V30 24 O 1.732 -0.5 0.0 0
M  V30 25 C 5.1961 -4.4999 0.0 0
M  V30 26 O 6.9282 -4.4999 0.0 0
M  V30 27 C 0.866 0.0 0.0 0
M  V30 28 C 0.0 -0.5 0.0 0
M  V30 END ATOM
M  V30 BEGIN BOND
M  V30 1 1 1 2
M  V30 2 2 2 3
M  V30 3 1 2 4
M  V30 4 1 3 5
M  V30 5 1 3 6
M  V30 6 2 4 7
M  V30 7 2 5 8
M  V30 8 1 6 9
M  V30 9 1 10 8 CFG=3
M  V30 10 2 9 11
M  V30 11 1 9 12
M  V30 12 1 10 13
M  V30 13 1 14 10
M  V30 14 1 11 15
M  V30 15 2 12 16
M  V30 16 1 17 13
M  V30 17 1 14 18 CFG=1
M  V30 18 1 19 14
M  V30 19 2 15 20
M  V30 20 1 17 21 CFG=3
M  V30 21 1 22 17
M  V30 22 1 19 23 CFG=3
M  V30 23 1 20 24
M  V30 24 1 21 25
M  V30 25 1 22 26 CFG=1
M  V30 26 1 24 27
M  V30 27 1 27 28
M  V30 28 1 7 8
M  V30 29 1 16 20
M  V30 30 1 19 22
M  V30 END BOND
M  V30 BEGIN COLLECTION
M  V30 MDLV30/STERAC1 ATOMS=(5 10 14 17 19 22)
M  V30 END COLLECTION
M  V30 END CTAB
M  END
>  <Molecule Name>


>  <status>
-

>  <cas>
1018899-04-1

>  <name>
SOTAGLIFLOZIN

>  <ID>
2069

>  <Smiles>
CCOc1ccc(Cc(cc([C@H]([C@H]([C@@H]([C@H]2O)O)O)O[C@H]2SC)cc2)c2Cl)cc1

$$$$

Actelion Java MolfileCreator 2.0

  0  0  0  0  0  0              0 V3000
M  V30 BEGIN CTAB
M  V30 COUNTS 43 48 0 0 0
M  V30 BEGIN ATOM
M  V30 1 Cl 2.598 3.0 0.0 0
M  V30 2 C 2.598 4.0 0.0 0
M  V30 3 C 3.4641 4.5 0.0 0
M  V30 4 C 1.732 4.5 0.0 0
M  V30 5 C 4.3301 3.9999 0.0 0
M  V30 6 C 3.4641 5.5 0.0 0
M  V30 7 C 1.732 5.5 0.0 0
M  V30 8 N 4.3301 3.0 0.0 0
M  V30 9 C 5.1961 4.4999 0.0 0
M  V30 10 C 2.598 6.0 0.0 0
M  V30 11 C 4.3301 6.0 0.0 0
M  V30 12 C 3.4641 2.5 0.0 0
M  V30 13 C 5.1961 2.4999 0.0 0
M  V30 14 C 5.1961 5.4999 0.0 0
M  V30 15 C 3.4641 1.5 0.0 0
M  V30 16 C 5.1961 1.4999 0.0 0
M  V30 17 N 2.598 1.0 0.0 0
M  V30 18 C 4.3301 0.9999 0.0 0
M  V30 19 C 2.598 0.0 0.0 0
M  V30 20 C 4.3301 0.0 0.0 0
M  V30 21 O 1.732 -0.5 0.0 0
M  V30 22 N 3.4641 -0.4999 0.0 0
M  V30 23 N 5.1961 -0.5 0.0 0
M  V30 24 C 0.866 0.0 0.0 0
M  V30 25 C 5.1961 -1.5 0.0 0
M  V30 26 C 6.0621 0.0 0.0 0
M  V30 27 C 0.0 -0.5 0.0 0 CFG=1
M  V30 28 C 6.0621 -2.0 0.0 0 CFG=1
M  V30 29 C 6.9282 -0.5 0.0 0
M  V30 30 N -0.9135 -0.0932 0.0 0
M  V30 31 C -0.1045 -1.4945 0.0 0
M  V30 32 N 6.9282 -1.5 0.0 0
M  V30 33 C 6.0621 -3.0 0.0 0
M  V30 34 C -1.5826 -0.8364 0.0 0
M  V30 35 C -1.1214 0.8848 0.0 0
M  V30 36 C -1.0826 -1.7024 0.0 0
M  V30 37 C 7.7942 -2.0 0.0 0
M  V30 38 C 6.9282 -3.5 0.0 0
M  V30 39 O 7.7942 -3.0 0.0 0
M  V30 40 C 8.6602 -1.5 0.0 0
M  V30 41 N 7.7942 -4.0 0.0 0
M  V30 42 F 8.6602 -0.5 0.0 0
M  V30 43 C 9.5262 -2.0 0.0 0
M  V30 END ATOM
M  V30 BEGIN BOND
M  V30 1 1 1 2
M  V30 2 1 2 3
M  V30 3 2 2 4
M  V30 4 2 3 5
M  V30 5 1 3 6
M  V30 6 1 4 7
M  V30 7 1 5 8
M  V30 8 1 5 9
M  V30 9 1 6 10
M  V30 10 2 6 11
M  V30 11 1 8 12
M  V30 12 1 8 13
M  V30 13 2 9 14
M  V30 14 1 12 15
M  V30 15 1 13 16
M  V30 16 2 15 17
M  V30 17 1 15 18
M  V30 18 1 17 19
M  V30 19 2 18 20
M  V30 20 1 19 21
M  V30 21 2 19 22
M  V30 22 1 20 23
M  V30 23 1 21 24
M  V30 24 1 23 25
M  V30 25 1 23 26
M  V30 26 1 27 24 CFG=3
M  V30 27 1 28 25
M  V30 28 1 26 29
M  V30 29 1 27 30
M  V30 30 1 27 31
M  V30 31 1 28 32
M  V30 32 1 28 33 CFG=1
M  V30 33 1 30 34
M  V30 34 1 30 35
M  V30 35 1 31 36
M  V30 36 1 32 37
M  V30 37 1 33 38
M  V30 38 2 37 39
M  V30 39 1 37 40
M  V30 40 3 38 41
M  V30 41 1 40 42
M  V30 42 2 40 43
M  V30 43 2 7 10
M  V30 44 1 11 14
M  V30 45 1 16 18
M  V30 46 1 20 22
M  V30 47 1 29 32
M  V30 48 1 34 36
M  V30 END BOND
M  V30 BEGIN COLLECTION
M  V30 MDLV30/STERAC1 ATOMS=(2 27 28)
M  V30 END COLLECTION
M  V30 END CTAB
M  END
>  <Molecule Name>


>  <status>
-

>  <cas>
2326521-71-3

>  <name>
ADAGRASIB

>  <ID>
2070

>  <Smiles>
CN1[C@H](COc2nc(N(CC3)C[C@H](CC#N)N3C(C(F)=C)=O)c(CCN(C3)c4c5c(Cl)cccc5ccc4)c3n2)CCC1

$$$$

Actelion Java MolfileCreator 2.0

  0  0  0  0  0  0              0 V3000
M  V30 BEGIN CTAB
M  V30 COUNTS 47 53 0 0 0
M  V30 BEGIN ATOM
M  V30 1 O 7.7942 0.0 0.0 0
M  V30 2 C 7.7942 0.9999 0.0 0
M  V30 3 N 8.6602 1.5 0.0 0
M  V30 4 C 6.9282 1.4999 0.0 0
M  V30 5 C 8.6602 2.5 0.0 0
M  V30 6 C 6.9282 2.4999 0.0 0
M  V30 7 C 6.0621 0.9999 0.0 0
M  V30 8 C 7.7942 2.9999 0.0 0
M  V30 9 C 9.5262 3.0 0.0 0
M  V30 10 C 5.1961 1.4999 0.0 0
M  V30 11 C 6.0621 0.0 0.0 0
M  V30 12 C 7.7942 3.9999 0.0 0
M  V30 13 C 9.5262 4.0 0.0 0
M  V30 14 C 4.3301 0.9999 0.0 0
M  V30 15 C 5.1961 -0.5 0.0 0
M  V30 16 C 8.6602 4.4999 0.0 0
M  V30 17 N 4.3301 0.0 0.0 0
M  V30 18 C 3.4641 -0.5 0.0 0
M  V30 19 O 3.4641 -1.5 0.0 0
M  V30 20 N 2.598 0.0 0.0 0
M  V30 21 C 1.732 -0.5 0.0 0 CFG=2
M  V30 22 C 1.732 -1.5 0.0 0
M  V30 23 C 0.866 0.0 0.0 0
M  V30 24 O 2.598 -1.9999 0.0 0
M  V30 25 N 0.866 -2.0 0.0 0
M  V30 26 C 0.866 0.9999 0.0 0
M  V30 27 C 0.866 -3.0 0.0 0
M  V30 28 C 0.0 -1.5 0.0 0
M  V30 29 C 0.0 1.4999 0.0 0
M  V30 30 C 1.732 1.4999 0.0 0
M  V30 31 C 0.0 -3.5 0.0 0
M  V30 32 C -0.866 -2.0 0.0 0
M  V30 33 C 0.0 2.4999 0.0 0
M  V30 34 C 1.732 2.5 0.0 0
M  V30 35 N -0.866 -3.0 0.0 0
M  V30 36 C 0.866 2.9999 0.0 0
M  V30 37 C -0.866 2.9999 0.0 0
M  V30 38 C 2.4751 3.1691 0.0 0
M  V30 39 C -1.732 -3.5 0.0 0
M  V30 40 N 1.0739 3.9781 0.0 0
M  V30 41 N 2.0684 4.0826 0.0 0
M  V30 42 C -1.732 -4.5 0.0 0
M  V30 43 C -2.598 -3.0 0.0 0
M  V30 44 C -2.598 -5.0 0.0 0
M  V30 45 C -3.4641 -3.5 0.0 0
M  V30 46 N -3.4641 -4.5 0.0 0
M  V30 47 C -4.3301 -5.0 0.0 0
M  V30 END ATOM
M  V30 BEGIN BOND
M  V30 1 2 1 2
M  V30 2 1 2 3
M  V30 3 1 2 4
M  V30 4 1 3 5
M  V30 5 2 4 6
M  V30 6 1 4 7
M  V30 7 2 5 8
M  V30 8 1 5 9
M  V30 9 1 7 10
M  V30 10 1 7 11
M  V30 11 1 8 12
M  V30 12 2 9 13
M  V30 13 1 10 14
M  V30 14 1 11 15
M  V30 15 2 12 16
M  V30 16 1 14 17
M  V30 17 1 17 18
M  V30 18 2 18 19
M  V30 19 1 18 20
M  V30 20 1 21 20 CFG=3
M  V30 21 1 21 22
M  V30 22 1 21 23
M  V30 23 2 22 24
M  V30 24 1 22 25
M  V30 25 1 23 26
M  V30 26 1 25 27
M  V30 27 1 25 28
M  V30 28 2 26 29
M  V30 29 1 26 30
M  V30 30 1 27 31
M  V30 31 1 28 32
M  V30 32 1 29 33
M  V30 33 2 30 34
M  V30 34 1 31 35
M  V30 35 2 33 36
M  V30 36 1 33 37
M  V30 37 1 34 38
M  V30 38 1 35 39
M  V30 39 1 36 40
M  V30 40 2 38 41
M  V30 41 1 39 42
M  V30 42 1 39 43
M  V30 43 1 42 44
M  V30 44 1 43 45
M  V30 45 1 44 46
M  V30 46 1 46 47
M  V30 47 1 6 8
M  V30 48 1 13 16
M  V30 49 1 15 17
M  V30 50 1 32 35
M  V30 51 1 34 36
M  V30 52 1 40 41
M  V30 53 1 45 46
M  V30 END BOND
M  V30 BEGIN COLLECTION
M  V30 MDLV30/STERAC1 ATOMS=(1 21)
M  V30 END COLLECTION
M  V30 END CTAB
M  END
>  <Molecule Name>


>  <status>
-

>  <cas>
1337918-83-8

>  <name>
ZAVEGEPANT

>  <ID>
2071

>  <Smiles>
Cc1c2[nH]ncc2cc(CC(C(N(CC2)CCN2C2CCN(C)CC2)=O)NC(N(CC2)CCC2C2=Cc(cccc3)c3NC2=O)=O)c1

$$$$

Actelion Java MolfileCreator 2.0

  0  0  0  0  0  0              0 V3000
M  V30 BEGIN CTAB
M  V30 COUNTS 42 46 0 0 0
M  V30 BEGIN ATOM
M  V30 1 S 9.0932 1.5 0.0 0
M  V30 2 O 10.5932 1.4999 0.0 0
M  V30 3 O 9.8432 2.799 0.0 0
M  V30 4 N 9.0932 0.0 0.0 0
M  V30 5 C 7.7942 2.25 0.0 0
M  V30 6 C 10.3923 -0.75 0.0 0
M  V30 7 C 6.4951 1.5 0.0 0
M  V30 8 C 7.7942 3.75 0.0 0
M  V30 9 N 10.5491 -2.2417 0.0 0
M  V30 10 C 11.7626 -0.1398 0.0 0
M  V30 11 C 6.4951 0.0 0.0 0
M  V30 12 C 5.1961 2.25 0.0 0
M  V30 13 C 6.4951 4.5 0.0 0
M  V30 14 O 12.0163 -2.5536 0.0 0
M  V30 15 C 12.7663 -1.2546 0.0 0
M  V30 16 C 12.0745 1.3273 0.0 0
M  V30 17 C 5.1961 -0.75 0.0 0
M  V30 18 C 7.7942 -0.75 0.0 0
M  V30 19 C 5.1961 3.75 0.0 0
M  V30 20 C 14.2581 -1.0978 0.0 0
M  V30 21 C 5.1961 -2.25 0.0 0
M  V30 22 C 3.8971 0.0 0.0 0
M  V30 23 C 7.7942 -2.25 0.0 0
M  V30 24 C 6.4951 -3.0 0.0 0
M  V30 25 O 3.8971 1.5 0.0 0
M  V30 26 C 6.4951 -4.5 0.0 0
M  V30 27 C 2.598 2.25 0.0 0
M  V30 28 N 5.1961 -5.25 0.0 0
M  V30 29 C 2.598 3.75 0.0 0
M  V30 30 C 5.0393 -6.7417 0.0 0
M  V30 31 C 3.8258 -4.6398 0.0 0
M  V30 32 O 6.154 -7.7454 0.0 0
M  V30 33 C 3.5721 -7.0536 0.0 0
M  V30 34 N 2.8221 -5.7546 0.0 0
M  V30 35 C 3.5139 -3.1726 0.0 0
M  V30 36 C 4.3221 -8.3526 0.0 0
M  V30 37 C 2.1049 -7.3655 0.0 0
M  V30 38 C 2.0873 -2.7091 0.0 0
M  V30 39 C 3.3184 -9.4674 0.0 0
M  V30 40 C 1.9481 -8.8573 0.0 0
M  V30 41 C 1.7755 -1.2419 0.0 0
M  V30 42 C 0.3489 -0.7784 0.0 0
M  V30 END ATOM
M  V30 BEGIN BOND
M  V30 1 2 1 2
M  V30 2 2 1 3
M  V30 3 1 1 4
M  V30 4 1 1 5
M  V30 5 1 4 6
M  V30 6 2 5 7
M  V30 7 1 5 8
M  V30 8 2 6 9
M  V30 9 1 6 10
M  V30 10 1 7 11
M  V30 11 1 7 12
M  V30 12 2 8 13
M  V30 13 1 9 14
M  V30 14 2 10 15
M  V30 15 1 10 16
M  V30 16 2 11 17
M  V30 17 1 11 18
M  V30 18 2 12 19
M  V30 19 1 15 20
M  V30 20 1 17 21
M  V30 21 1 17 22
M  V30 22 2 18 23
M  V30 23 2 21 24
M  V30 24 1 22 25
M  V30 25 1 24 26
M  V30 26 1 25 27
M  V30 27 1 26 28
M  V30 28 1 27 29
M  V30 29 1 28 30
M  V30 30 1 28 31
M  V30 31 2 30 32
M  V30 32 1 30 33
M  V30 33 2 31 34
M  V30 34 1 31 35
M  V30 35 1 33 36
M  V30 36 1 33 37
M  V30 37 1 35 38
M  V30 38 1 36 39
M  V30 39 1 37 40
M  V30 40 1 38 41
M  V30 41 1 41 42
M  V30 42 1 13 19
M  V30 43 1 14 15
M  V30 44 1 23 24
M  V30 45 1 33 34
M  V30 46 1 39 40
M  V30 END BOND
M  V30 END CTAB
M  END
>  <Molecule Name>


>  <status>
-

>  <cas>
254740-64-2

>  <name>
SPARSENTAN

>  <ID>
2072

>  <Smiles>
CCCCC(N1Cc(cc2)cc(COCC)c2-c(cccc2)c2S(Nc2noc(C)c2C)(=O)=O)=NC2(CCCC2)C1=O

$$$$

Actelion Java MolfileCreator 2.0

  0  0  0  0  0  0              0 V3000
M  V30 BEGIN CTAB
M  V30 COUNTS 25 28 0 0 0
M  V30 BEGIN ATOM
M  V30 1 S 4.1363 -3.569 0.0 0
M  V30 2 N 4.7241 -4.3781 0.0 0
M  V30 3 C 4.7241 -2.76 0.0 0
M  V30 4 C 5.6752 -4.069 0.0 0
M  V30 5 N 5.6752 -3.069 0.0 0
M  V30 6 C 4.4151 -1.809 0.0 0
M  V30 7 C 6.4842 -4.6568 0.0 0
M  V30 8 N 5.0029 -1.0 0.0 0
M  V30 9 N 3.4641 -1.5 0.0 0
M  V30 10 N 4.4151 -0.1909 0.0 0
M  V30 11 C 3.4641 -0.5 0.0 0
M  V30 12 C 2.598 -2.0 0.0 0
M  V30 13 C 2.598 0.0 0.0 0 CFG=1
M  V30 14 C 1.732 -1.4999 0.0 0
M  V30 15 N 1.732 -0.5 0.0 0
M  V30 16 C 2.598 1.0 0.0 0
M  V30 17 C 0.866 0.0 0.0 0
M  V30 18 O 0.866 1.0 0.0 0
M  V30 19 C 0.0 -0.5 0.0 0
M  V30 20 C -0.866 0.0 0.0 0
M  V30 21 C 0.0 -1.4999 0.0 0
M  V30 22 C -1.732 -0.4999 0.0 0
M  V30 23 C -0.866 -1.9999 0.0 0
M  V30 24 C -1.732 -1.4999 0.0 0
M  V30 25 F -2.598 -1.9999 0.0 0
M  V30 END ATOM
M  V30 BEGIN BOND
M  V30 1 1 1 2
M  V30 2 1 1 3
M  V30 3 2 2 4
M  V30 4 2 3 5
M  V30 5 1 3 6
M  V30 6 1 4 7
M  V30 7 2 6 8
M  V30 8 1 6 9
M  V30 9 1 8 10
M  V30 10 1 9 11
M  V30 11 1 9 12
M  V30 12 1 13 11
M  V30 13 1 12 14
M  V30 14 1 13 15
M  V30 15 1 13 16 CFG=1
M  V30 16 1 15 17
M  V30 17 2 17 18
M  V30 18 1 17 19
M  V30 19 2 19 20
M  V30 20 1 19 21
M  V30 21 1 20 22
M  V30 22 2 21 23
M  V30 23 2 22 24
M  V30 24 1 24 25
M  V30 25 1 4 5
M  V30 26 2 10 11
M  V30 27 1 14 15
M  V30 28 1 23 24
M  V30 END BOND
M  V30 BEGIN COLLECTION
M  V30 MDLV30/STERAC1 ATOMS=(1 13)
M  V30 END COLLECTION
M  V30 END CTAB
M  END
>  <Molecule Name>


>  <status>
-

>  <cas>
1629229-37-3

>  <name>
FEZOLINETANT

>  <ID>
2073

>  <Smiles>
CC(c1nnc(-c2nc(C)ns2)n1CC1)N1C(c(cc1)ccc1F)=O

$$$$

Actelion Java MolfileCreator 2.0

  0  0  0  0  0  0              0 V3000
M  V30 BEGIN CTAB
M  V30 COUNTS 34 37 0 0 0
M  V30 BEGIN ATOM
M  V30 1 S 6.9282 -0.5 0.0 0
M  V30 2 O 6.4282 -1.366 0.0 0
M  V30 3 O 7.4282 0.366 0.0 0
M  V30 4 O 7.7942 -1.0 0.0 0
M  V30 5 C 6.0621 0.0 0.0 0
M  V30 6 C 5.1961 -0.5 0.0 0
M  V30 7 N 4.3301 0.0 0.0 0
M  V30 8 C 3.4641 -0.5 0.0 0
M  V30 9 O 3.4641 -1.5 0.0 0
M  V30 10 C 2.598 0.0 0.0 0
M  V30 11 C 1.732 -0.5 0.0 0
M  V30 12 C 0.866 0.0 0.0 0 CFG=2
M  V30 13 C 0.866 1.0 0.0 0 CFG=2
M  V30 14 C 0.0 -0.5 0.0 0
M  V30 15 C 1.675 1.5877 0.0 0 CFG=2
M  V30 16 C 0.057 1.5877 0.0 0
M  V30 17 C 1.366 2.5388 0.0 0 CFG=1
M  V30 18 C 2.6531 1.3798 0.0 0
M  V30 19 C 1.8829 0.6096 0.0 0
M  V30 20 C 0.366 2.5388 0.0 0
M  V30 21 C 2.0351 3.2819 0.0 0 CFG=2
M  V30 22 C 3.3223 2.123 0.0 0
M  V30 23 C 1.7261 4.233 0.0 0 CFG=1
M  V30 24 C 3.0133 3.074 0.0 0 CFG=2
M  V30 25 O 0.7479 4.4409 0.0 0
M  V30 26 C 2.3952 4.9761 0.0 0
M  V30 27 C 3.6824 3.8172 0.0 0 CFG=2
M  V30 28 C 3.3734 4.7682 0.0 0 CFG=1
M  V30 29 C 4.6605 3.6093 0.0 0
M  V30 30 C 3.9914 2.8661 0.0 0
M  V30 31 C 4.0425 5.5114 0.0 0
M  V30 32 C 5.3297 4.3524 0.0 0
M  V30 33 C 5.0206 5.3035 0.0 0 CFG=1
M  V30 34 O 5.6898 6.0466 0.0 0
M  V30 END ATOM
M  V30 BEGIN BOND
M  V30 1 2 1 2
M  V30 2 2 1 3
M  V30 3 1 1 4
M  V30 4 1 1 5
M  V30 5 1 5 6
M  V30 6 1 6 7
M  V30 7 1 7 8
M  V30 8 2 8 9
M  V30 9 1 8 10
M  V30 10 1 10 11
M  V30 11 1 12 11
M  V30 12 1 13 12
M  V30 13 1 12 14 CFG=1
M  V30 14 1 15 13
M  V30 15 1 13 16 CFG=1
M  V30 16 1 17 15
M  V30 17 1 15 18
M  V30 18 1 15 19 CFG=1
M  V30 19 1 16 20
M  V30 20 1 21 17 CFG=3
M  V30 21 1 18 22
M  V30 22 1 23 21
M  V30 23 1 24 21
M  V30 24 1 23 25 CFG=1
M  V30 25 1 23 26
M  V30 26 1 27 24
M  V30 27 1 28 26 CFG=3
M  V30 28 1 27 29
M  V30 29 1 27 30 CFG=1
M  V30 30 1 28 31
M  V30 31 1 29 32
M  V30 32 1 33 31
M  V30 33 1 33 34 CFG=3
M  V30 34 1 17 20 CFG=1
M  V30 35 1 24 22 CFG=1
M  V30 36 1 27 28
M  V30 37 1 32 33
M  V30 END BOND
M  V30 BEGIN COLLECTION
M  V30 MDLV30/STERAC1 ATOMS=(10 12 13 15 17 21 23 24 27 28 33)
M  V30 END COLLECTION
M  V30 END CTAB
M  END
>  <Molecule Name>


>  <status>
-

>  <cas>
14605-22-2

>  <name>
TAURURSODIOL

>  <ID>
2074

>  <Smiles>
C[C@H](CCC(NCCS(O)(=O)=O)=O)[C@@H](CC1)[C@@](C)(CC[C@@H]2[C@@](C)(CC[C@H](C3)O)[C@@H]3C3)[C@@H]1[C@@H]2[C@H]3O

$$$$

Actelion Java MolfileCreator 2.0

  0  0  0  0  0  0              0 V3000
M  V30 BEGIN CTAB
M  V30 COUNTS 40 44 0 0 0
M  V30 BEGIN ATOM
M  V30 1 F 3.1557 1.3026 0.0 0
M  V30 2 C 3.9078 0.0 0.0 0
M  V30 3 F 5.2104 0.752 0.0 0
M  V30 4 C 2.6052 -0.752 0.0 0
M  V30 5 C 4.6599 -1.3026 0.0 0
M  V30 6 O 2.6052 -2.2561 0.0 0
M  V30 7 N 1.3026 0.0 0.0 0
M  V30 8 C 0.0 -0.752 0.0 0 CFG=2
M  V30 9 C -1.3026 -1.5041 0.0 0 CFG=2
M  V30 10 C 1.3026 -1.5041 0.0 0
M  V30 11 C 0.0 0.752 0.0 0
M  V30 12 C -1.3026 -3.0082 0.0 0 CFG=1
M  V30 13 C -2.6052 -0.752 0.0 0
M  V30 14 C 1.3026 -3.0082 0.0 0
M  V30 15 C -1.3026 1.5041 0.0 0
M  V30 16 C -2.6052 -3.7603 0.0 0
M  V30 17 C 0.0 -3.7603 0.0 0 CFG=1
M  V30 18 C -2.6052 0.752 0.0 0
M  V30 19 O -3.9078 -3.0082 0.0 0
M  V30 20 C -2.6052 -5.2644 0.0 0
M  V30 21 C 0.0 -5.2644 0.0 0 CFG=1
M  V30 22 C 1.257 -4.3299 0.0 0
M  V30 23 C -3.3572 2.0546 0.0 0
M  V30 24 C -4.1093 0.752 0.0 0
M  V30 25 C -1.3026 -6.0165 0.0 0
M  V30 26 C 1.3026 -6.0165 0.0 0
M  V30 27 C 1.3938 -4.8771 0.0 0
M  V30 28 C -1.3026 -7.5206 0.0 0 CFG=1
M  V30 29 C 1.3026 -7.5206 0.0 0
M  V30 30 C -2.6052 -8.2727 0.0 0
M  V30 31 C 0.0 -8.2727 0.0 0 CFG=1
M  V30 32 C -2.6052 -6.7685 0.0 0
M  V30 33 C -2.6052 -9.7768 0.0 0
M  V30 34 C 0.0 -9.7768 0.0 0
M  V30 35 C -3.9078 -10.5289 0.0 0
M  V30 36 C -1.3026 -10.5289 0.0 0
M  V30 37 C 0.752 -11.0794 0.0 0
M  V30 38 C 1.504 -9.7768 0.0 0
M  V30 39 N -5.2104 -11.2809 0.0 0
M  V30 40 O -1.3026 -12.033 0.0 0
M  V30 END ATOM
M  V30 BEGIN BOND
M  V30 1 1 1 2
M  V30 2 1 2 3
M  V30 3 1 2 4
M  V30 4 1 2 5
M  V30 5 2 4 6
M  V30 6 1 4 7
M  V30 7 1 8 7 CFG=1
M  V30 8 1 9 8
M  V30 9 1 8 10
M  V30 10 1 8 11
M  V30 11 1 12 9
M  V30 12 1 9 13 CFG=3
M  V30 13 1 10 14
M  V30 14 1 11 15
M  V30 15 1 12 16 CFG=3
M  V30 16 1 17 12
M  V30 17 1 13 18
M  V30 18 2 16 19
M  V30 19 1 16 20
M  V30 20 1 21 17
M  V30 21 1 17 22 CFG=3
M  V30 22 1 18 23
M  V30 23 1 18 24
M  V30 24 2 20 25
M  V30 25 1 21 26
M  V30 26 1 21 27 CFG=1
M  V30 27 1 28 25
M  V30 28 1 26 29
M  V30 29 1 28 30
M  V30 30 1 31 28
M  V30 31 1 28 32 CFG=1
M  V30 32 2 30 33
M  V30 33 1 31 34
M  V30 34 1 33 35
M  V30 35 1 33 36
M  V30 36 1 34 37
M  V30 37 1 34 38
M  V30 38 3 35 39
M  V30 39 2 36 40
M  V30 40 1 14 17
M  V30 41 1 15 18
M  V30 42 1 21 25
M  V30 43 1 31 29 CFG=1
M  V30 44 1 34 36
M  V30 END BOND
M  V30 BEGIN COLLECTION
M  V30 MDLV30/STERAC1 ATOMS=(7 8 9 12 17 21 28 31)
M  V30 END COLLECTION
M  V30 END CTAB
M  END
>  <Molecule Name>


>  <status>
-

>  <cas>
1474034-05-3

>  <name>
OMAVELOXOLONE

>  <ID>
2075

>  <Smiles>
CC(C(N[C@@](CCC(C)(C)C1)(CC[C@@]2(C)[C@](C)(CC[C@@H](C(C)(C)C3=O)[C@]4(C)C=C3C#N)C4=C3)[C@@H]1[C@H]2C3=O)=O)(F)F

$$$$

Actelion Java MolfileCreator 2.0

  0  0  0  0  0  0              0 V3000
M  V30 BEGIN CTAB
M  V30 COUNTS 28 30 0 0 0
M  V30 BEGIN ATOM
M  V30 1 O 6.9282 1.4999 0.0 0
M  V30 2 C 6.0621 0.9999 0.0 0
M  V30 3 N 5.1961 1.4999 0.0 0
M  V30 4 N 6.0621 0.0 0.0 0
M  V30 5 C 4.3301 0.9999 0.0 0
M  V30 6 C 5.1961 2.4999 0.0 0
M  V30 7 C 5.1961 -0.5 0.0 0
M  V30 8 C 6.9282 -0.5 0.0 0
M  V30 9 O 3.4641 1.5 0.0 0
M  V30 10 C 4.3301 0.0 0.0 0
M  V30 11 C 6.0621 2.9999 0.0 0
M  V30 12 C 4.3301 3.0 0.0 0
M  V30 13 O 5.1961 -1.5 0.0 0
M  V30 14 C 6.9282 -1.5 0.0 0
M  V30 15 C 7.7942 0.0 0.0 0
M  V30 16 C 3.4641 -0.5 0.0 0
M  V30 17 C 6.0621 3.9999 0.0 0
M  V30 18 C 4.3301 4.0 0.0 0
M  V30 19 C 7.7942 -2.0 0.0 0
M  V30 20 C 8.6602 -0.5 0.0 0
M  V30 21 O 3.4641 -1.5 0.0 0
M  V30 22 N 2.598 0.0 0.0 0
M  V30 23 C 5.1961 4.4999 0.0 0
M  V30 24 C 8.6602 -1.5 0.0 0
M  V30 25 C 1.732 -0.5 0.0 0
M  V30 26 C 0.866 0.0 0.0 0
M  V30 27 O 0.866 1.0 0.0 0
M  V30 28 O 0.0 -0.5 0.0 0 CHG=-1
M  V30 END ATOM
M  V30 BEGIN BOND
M  V30 1 2 1 2
M  V30 2 1 2 3
M  V30 3 1 2 4
M  V30 4 1 3 5
M  V30 5 1 3 6
M  V30 6 1 4 7
M  V30 7 1 4 8
M  V30 8 2 5 9
M  V30 9 1 5 10
M  V30 10 1 6 11
M  V30 11 1 6 12
M  V30 12 2 7 13
M  V30 13 1 8 14
M  V30 14 1 8 15
M  V30 15 1 10 16
M  V30 16 1 11 17
M  V30 17 1 12 18
M  V30 18 1 14 19
M  V30 19 1 15 20
M  V30 20 2 16 21
M  V30 21 1 16 22
M  V30 22 1 17 23
M  V30 23 1 19 24
M  V30 24 1 22 25
M  V30 25 1 25 26
M  V30 26 2 26 27
M  V30 27 1 26 28
M  V30 28 1 7 10
M  V30 29 1 18 23
M  V30 30 1 20 24
M  V30 END BOND
M  V30 END CTAB
M  END
>  <Molecule Name>


>  <status>
-

>  <cas>
960539-70-2

>  <name>
DAPRODUSTAT

>  <ID>
2076

>  <Smiles>
[O-]C(CNC(C(C(N(C1CCCCC1)C(N1C2CCCCC2)=O)=O)C1=O)=O)=O

$$$$

Actelion Java MolfileCreator 2.0

  0  0  0  0  0  0              0 V3000
M  V30 BEGIN CTAB
M  V30 COUNTS 18 19 0 0 0
M  V30 BEGIN ATOM
M  V30 1 S 1.732 -0.5 0.0 0
M  V30 2 O 1.232 -1.366 0.0 0
M  V30 3 O 2.232 0.366 0.0 0
M  V30 4 O 0.866 0.0 0.0 0
M  V30 5 O 2.598 -0.9999 0.0 0
M  V30 6 N 0.0 -0.5 0.0 0
M  V30 7 C -0.9135 -0.0932 0.0 0
M  V30 8 C -0.1045 -1.4945 0.0 0 CFG=1
M  V30 9 O -1.1214 0.8848 0.0 0
M  V30 10 N -1.5826 -0.8364 0.0 0
M  V30 11 C -0.6066 -2.7625 0.0 0
M  V30 12 C -1.0826 -1.7024 0.0 0
M  V30 13 C -2.1889 -2.058 0.0 0 CFG=2
M  V30 14 C -1.6011 -2.867 0.0 0
M  V30 15 C -3.1854 -2.1417 0.0 0
M  V30 16 C -2.0079 -3.7805 0.0 0
M  V30 17 O -3.7562 -1.3206 0.0 0
M  V30 18 N -3.6112 -3.0465 0.0 0
M  V30 END ATOM
M  V30 BEGIN BOND
M  V30 1 2 1 2
M  V30 2 2 1 3
M  V30 3 1 1 4
M  V30 4 1 1 5
M  V30 5 1 4 6
M  V30 6 1 6 7
M  V30 7 1 8 6 CFG=1
M  V30 8 2 7 9
M  V30 9 1 7 10
M  V30 10 1 8 11
M  V30 11 1 8 12
M  V30 12 1 13 10
M  V30 13 2 11 14
M  V30 14 1 13 15 CFG=3
M  V30 15 1 14 16
M  V30 16 2 15 17
M  V30 17 1 15 18
M  V30 18 1 10 12
M  V30 19 1 13 14
M  V30 END BOND
M  V30 BEGIN COLLECTION
M  V30 MDLV30/STERAC1 ATOMS=(2 8 13)
M  V30 END COLLECTION
M  V30 END CTAB
M  END
>  <Molecule Name>


>  <status>
-

>  <cas>
1467829-71-5

>  <name>
DURLOBACTAM

>  <ID>
2077

>  <Smiles>
CC([C@H](C(N)=O)N(C1)C2=O)=C[C@@H]1N2OS(O)(=O)=O

$$$$

Actelion Java MolfileCreator 2.0

  0  0  0  0  0  0              0 V3000
M  V30 BEGIN CTAB
M  V30 COUNTS 22 22 0 0 0
M  V30 BEGIN ATOM
M  V30 1 O 6.0621 0.0 0.0 0
M  V30 2 C 5.1961 -0.5 0.0 0
M  V30 3 N 4.3301 0.0 0.0 0
M  V30 4 C 5.1961 -1.4999 0.0 0 CFG=1
M  V30 5 C 3.4641 -0.5 0.0 0 CFG=2
M  V30 6 N 6.0051 -2.0877 0.0 0
M  V30 7 C 4.3871 -2.0877 0.0 0
M  V30 8 C 4.3051 -1.046 0.0 0
M  V30 9 C 2.598 0.0 0.0 0
M  V30 10 C 3.4641 -1.5 0.0 0
M  V30 11 C 6.9562 -1.7787 0.0 0
M  V30 12 C 5.6961 -3.0388 0.0 0
M  V30 13 C 4.6961 -3.0388 0.0 0
M  V30 14 O 1.732 -0.4999 0.0 0
M  V30 15 O 2.598 0.9999 0.0 0 CHG=-1
M  V30 16 C 2.598 -1.9999 0.0 0
M  V30 17 O 7.6993 -2.4478 0.0 0
M  V30 18 C 7.1641 -0.8006 0.0 0
M  V30 19 C 2.598 -2.9999 0.0 0
M  V30 20 N 8.1151 -0.4916 0.0 0
M  V30 21 O 3.4641 -3.5 0.0 0
M  V30 22 O 1.732 -3.5 0.0 0 CHG=-1
M  V30 END ATOM
M  V30 BEGIN BOND
M  V30 1 2 1 2
M  V30 2 1 2 3
M  V30 3 1 4 2
M  V30 4 1 5 3 CFG=1
M  V30 5 1 4 6
M  V30 6 1 4 7
M  V30 7 1 4 8 CFG=3
M  V30 8 1 5 9
M  V30 9 1 5 10
M  V30 10 1 6 11
M  V30 11 1 6 12
M  V30 12 1 7 13
M  V30 13 2 9 14
M  V30 14 1 9 15
M  V30 15 1 10 16
M  V30 16 2 11 17
M  V30 17 1 11 18
M  V30 18 1 16 19
M  V30 19 1 18 20
M  V30 20 2 19 21
M  V30 21 1 19 22
M  V30 22 1 12 13
M  V30 END BOND
M  V30 BEGIN COLLECTION
M  V30 MDLV30/STERAC1 ATOMS=(2 4 5)
M  V30 END COLLECTION
M  V30 END CTAB
M  END
>  <Molecule Name>


>  <status>
-

>  <cas>
853400-76-7

>  <name>
TROFINETIDE

>  <ID>
2078

>  <Smiles>
C[C@](CCC1)(C(N[C@@H](CCC([O-])=O)C([O-])=O)=O)N1C(CN)=O

$$$$

Actelion Java MolfileCreator 2.0

  0  0  0  0  0  0              0 V3000
M  V30 BEGIN CTAB
M  V30 COUNTS 35 37 0 0 0
M  V30 BEGIN ATOM
M  V30 1 F 4.4461 3.549 0.0 0
M  V30 2 C 5.1961 2.25 0.0 0
M  V30 3 F 6.4951 3.0 0.0 0
M  V30 4 F 5.9461 0.9509 0.0 0
M  V30 5 C 3.8971 1.5 0.0 0
M  V30 6 O 3.8971 0.0 0.0 0
M  V30 7 N 2.598 2.25 0.0 0
M  V30 8 C 1.299 1.5 0.0 0 CFG=2
M  V30 9 C 1.299 0.0 0.0 0
M  V30 10 C 0.0 2.25 0.0 0
M  V30 11 O 2.598 -0.75 0.0 0
M  V30 12 N 0.0 -0.75 0.0 0
M  V30 13 C 0.75 3.549 0.0 0
M  V30 14 C -1.299 3.0 0.0 0
M  V30 15 C -0.75 0.9509 0.0 0
M  V30 16 C -0.1567 -2.2417 0.0 0 CFG=2
M  V30 17 C -1.3703 -0.1398 0.0 0
M  V30 18 C 0.9579 -3.2454 0.0 0
M  V30 19 C -1.624 -2.5536 0.0 0 CFG=2
M  V30 20 C -2.374 -1.2546 0.0 0 CFG=1
M  V30 21 O 2.3845 -2.7819 0.0 0
M  V30 22 N 0.646 -4.7127 0.0 0
M  V30 23 C -3.124 -2.5536 0.0 0
M  V30 24 C 1.7607 -5.7164 0.0 0 CFG=2
M  V30 25 C -4.6239 -2.5536 0.0 0
M  V30 26 C -3.8739 -3.8526 0.0 0
M  V30 27 C 3.1873 -5.2528 0.0 0
M  V30 28 C 1.4489 -7.1836 0.0 0
M  V30 29 N 4.6139 -4.7893 0.0 0
M  V30 30 C 0.0223 -7.6471 0.0 0 CFG=1
M  V30 31 C -1.1912 -6.7654 0.0 0
M  V30 32 C -0.4412 -9.0737 0.0 0
M  V30 33 O -1.1912 -5.2654 0.0 0
M  V30 34 N -2.4047 -7.6471 0.0 0
M  V30 35 C -1.9412 -9.0737 0.0 0
M  V30 END ATOM
M  V30 BEGIN BOND
M  V30 1 1 1 2
M  V30 2 1 2 3
M  V30 3 1 2 4
M  V30 4 1 2 5
M  V30 5 2 5 6
M  V30 6 1 5 7
M  V30 7 1 8 7 CFG=3
M  V30 8 1 8 9
M  V30 9 1 8 10
M  V30 10 2 9 11
M  V30 11 1 9 12
M  V30 12 1 10 13
M  V30 13 1 10 14
M  V30 14 1 10 15
M  V30 15 1 16 12
M  V30 16 1 12 17
M  V30 17 1 16 18 CFG=3
M  V30 18 1 19 16
M  V30 19 1 20 17 CFG=1
M  V30 20 2 18 21
M  V30 21 1 18 22
M  V30 22 1 19 23 CFG=1
M  V30 23 1 24 22 CFG=3
M  V30 24 1 23 25
M  V30 25 1 23 26
M  V30 26 1 24 27
M  V30 27 1 24 28
M  V30 28 3 27 29
M  V30 29 1 30 28 CFG=3
M  V30 30 1 30 31
M  V30 31 1 30 32
M  V30 32 2 31 33
M  V30 33 1 31 34
M  V30 34 1 32 35
M  V30 35 1 19 20
M  V30 36 1 20 23
M  V30 37 1 34 35
M  V30 END BOND
M  V30 BEGIN COLLECTION
M  V30 MDLV30/STERAC1 ATOMS=(6 8 16 19 20 24 30)
M  V30 END COLLECTION
M  V30 END CTAB
M  END
>  <Molecule Name>


>  <status>
-

>  <cas>
2628280-40-8

>  <name>
NIRMATRELVIR

>  <ID>
2079

>  <Smiles>
CC(C)(C)[C@@H](C(N(C[C@@H]1C(C)(C)[C@H]11)[C@@H]1C(N[C@@H](C[C@H](CCN1)C1=O)C#N)=O)=O)NC(C(F)(F)F)=O

$$$$

Actelion Java MolfileCreator 2.0

  0  0  0  0  0  0              0 V3000
M  V30 BEGIN CTAB
M  V30 COUNTS 88 94 0 0 0
M  V30 BEGIN ATOM
M  V30 1 O 23.3396 -11.549 0.0 0
M  V30 2 C 23.3658 -12.9499 0.0 0
M  V30 3 N 24.6461 -13.8417 0.0 0
M  V30 4 C 22.1667 -13.6998 0.0 0 CFG=2
M  V30 5 C 24.4642 -15.1505 0.0 0 CFG=1
M  V30 6 C 26.0958 -13.5163 0.0 0
M  V30 7 N 20.9661 -13.6529 0.0 0
M  V30 8 C 22.8981 -15.0679 0.0 0 CFG=1
M  V30 9 C 22.9802 -15.7376 0.0 0
M  V30 10 C 25.7576 -15.9233 0.0 0 CFG=1
M  V30 11 C 26.8011 -14.8427 0.0 0 CFG=2
M  V30 12 C 19.8568 -12.4861 0.0 0
M  V30 13 O 21.8685 -16.3793 0.0 0
M  V30 14 C 24.2919 -15.7612 0.0 0
M  V30 15 O 22.436 -17.0398 0.0 0
M  V30 16 N 22.0218 -14.5368 0.0 0
M  V30 17 O 26.0184 -17.4027 0.0 0
M  V30 18 C 28.2887 -15.0518 0.0 0
M  V30 19 O 20.3489 -11.157 0.0 0
M  V30 20 C 18.5224 -12.9207 0.0 0 CFG=2
M  V30 21 C 22.7947 -13.1779 0.0 0 CFG=1
M  V30 22 N 18.3133 -14.4083 0.0 0
M  V30 23 C 17.406 -11.9155 0.0 0 CFG=1
M  V30 24 O 24.3619 -13.2238 0.0 0
M  V30 25 C 22.2947 -11.8154 0.0 0 CFG=1
M  V30 26 C 19.6143 -15.1594 0.0 0
M  V30 27 O 17.7183 -10.4461 0.0 0
M  V30 28 C 15.9773 -12.3797 0.0 0 CFG=2
M  V30 29 C 25.2396 -12.0242 0.0 0
M  V30 30 O 23.5119 -10.7364 0.0 0
M  V30 31 C 20.8223 -11.262 0.0 0
M  V30 32 O 19.7191 -16.658 0.0 0
M  V30 33 C 20.7779 -14.3045 0.0 0 CFG=2
M  V30 34 O 15.665 -13.8491 0.0 0
M  V30 35 C 14.8609 -11.3745 0.0 0
M  V30 36 C 26.7338 -12.2376 0.0 0
M  V30 37 C 20.8409 -9.7259 0.0 0 CFG=1
M  V30 38 N 20.495 -12.7478 0.0 0
M  V30 39 C 22.3459 -14.3494 0.0 0
M  V30 40 C 13.4322 -11.8388 0.0 0
M  V30 41 C 15.1733 -9.9051 0.0 0
M  V30 42 N 27.6168 -11.0223 0.0 0 CHG=1
M  V30 43 N 19.5145 -9.0134 0.0 0
M  V30 44 C 22.1657 -9.1059 0.0 0
M  V30 45 C 21.243 -11.6393 0.0 0
M  V30 46 C 21.6627 -12.0716 0.0 0
M  V30 47 C 22.8468 -12.7183 0.0 0 CFG=1
M  V30 48 C 12.3158 -10.8336 0.0 0
M  V30 49 C 14.0569 -8.8999 0.0 0
M  V30 50 C 26.4015 -10.1393 0.0 0
M  V30 51 C 28.4998 -9.807 0.0 0
M  V30 52 C 28.8321 -11.9053 0.0 0
M  V30 53 C 19.5145 -7.5111 0.0 0
M  V30 54 O 22.3748 -7.6183 0.0 0
M  V30 55 N 23.2674 -10.0712 0.0 0
M  V30 56 O 20.4529 -10.3145 0.0 0
M  V30 57 C 22.8417 -11.5575 0.0 0 CFG=2
M  V30 58 O 24.2576 -12.379 0.0 0
M  V30 59 C 12.6282 -9.3642 0.0 0
M  V30 60 O 20.8155 -6.76 0.0 0
M  V30 61 C 18.2136 -6.76 0.0 0
M  V30 62 C 23.7283 -12.7106 0.0 0 CFG=1
M  V30 63 O 11.5118 -8.359 0.0 0
M  V30 64 C 18.2136 -5.2578 0.0 0
M  V30 65 C 16.9126 -7.5111 0.0 0
M  V30 66 O 23.0835 -14.118 0.0 0
M  V30 67 C 25.242 -12.7189 0.0 0
M  V30 68 C 16.9126 -4.5067 0.0 0
M  V30 69 C 15.6116 -6.76 0.0 0
M  V30 70 C 15.6116 -5.2578 0.0 0
M  V30 71 C 14.3107 -4.5067 0.0 0
M  V30 72 C 14.3107 -3.0044 0.0 0
M  V30 73 C 13.0097 -5.2578 0.0 0
M  V30 74 C 13.0097 -2.2533 0.0 0
M  V30 75 C 11.7087 -4.5067 0.0 0
M  V30 76 C 11.7087 -3.0044 0.0 0
M  V30 77 C 10.4077 -2.2533 0.0 0
M  V30 78 C 10.4077 -0.7511 0.0 0
M  V30 79 C 9.1068 -3.0044 0.0 0
M  V30 80 C 9.1068 0.0 0.0 0
M  V30 81 C 7.8058 -2.2533 0.0 0
M  V30 82 C 7.8058 -0.7511 0.0 0
M  V30 83 O 6.5048 0.0 0.0 0
M  V30 84 C 5.2038 -0.7511 0.0 0
M  V30 85 C 3.9029 0.0 0.0 0
M  V30 86 C 2.6019 -0.7511 0.0 0
M  V30 87 C 1.3009 0.0 0.0 0
M  V30 88 C 0.0 -0.7511 0.0 0
M  V30 END ATOM
M  V30 BEGIN BOND
M  V30 1 2 1 2
M  V30 2 1 2 3
M  V30 3 1 4 2
M  V30 4 1 5 3 CFG=3
M  V30 5 1 3 6
M  V30 6 1 4 7 CFG=1
M  V30 7 1 8 4
M  V30 8 1 5 9
M  V30 9 1 10 5
M  V30 10 1 11 6
M  V30 11 1 7 12
M  V30 12 1 8 13 CFG=3
M  V30 13 1 8 14
M  V30 14 2 9 15
M  V30 15 1 9 16
M  V30 16 1 10 17 CFG=1
M  V30 17 1 11 18 CFG=1
M  V30 18 2 12 19
M  V30 19 1 20 12
M  V30 20 1 21 16
M  V30 21 1 20 22 CFG=3
M  V30 22 1 23 20
M  V30 23 1 21 24 CFG=3
M  V30 24 1 25 21
M  V30 25 1 22 26
M  V30 26 1 23 27 CFG=3
M  V30 27 1 28 23
M  V30 28 1 24 29
M  V30 29 1 25 30 CFG=3
M  V30 30 1 25 31
M  V30 31 2 26 32
M  V30 32 1 33 26
M  V30 33 1 28 34 CFG=3
M  V30 34 1 28 35
M  V30 35 1 29 36
M  V30 36 1 37 31
M  V30 37 1 33 38 CFG=3
M  V30 38 1 33 39
M  V30 39 2 35 40
M  V30 40 1 35 41
M  V30 41 1 36 42
M  V30 42 1 37 43 CFG=1
M  V30 43 1 37 44
M  V30 44 1 38 45
M  V30 45 1 38 46
M  V30 46 1 47 39
M  V30 47 1 40 48
M  V30 48 2 41 49
M  V30 49 1 42 50
M  V30 50 1 42 51
M  V30 51 1 42 52
M  V30 52 1 43 53
M  V30 53 2 44 54
M  V30 54 1 44 55
M  V30 55 2 45 56
M  V30 56 1 57 45
M  V30 57 1 47 58 CFG=1
M  V30 58 2 48 59
M  V30 59 2 53 60
M  V30 60 1 53 61
M  V30 61 1 62 57
M  V30 62 1 59 63
M  V30 63 2 61 64
M  V30 64 1 61 65
M  V30 65 1 62 66 CFG=3
M  V30 66 1 62 67
M  V30 67 1 64 68
M  V30 68 2 65 69
M  V30 69 2 68 70
M  V30 70 1 70 71
M  V30 71 2 71 72
M  V30 72 1 71 73
M  V30 73 1 72 74
M  V30 74 2 73 75
M  V30 75 2 74 76
M  V30 76 1 76 77
M  V30 77 2 77 78
M  V30 78 1 77 79
M  V30 79 1 78 80
M  V30 80 2 79 81
M  V30 81 2 80 82
M  V30 82 1 82 83
M  V30 83 1 83 84
M  V30 84 1 84 85
M  V30 85 1 85 86
M  V30 86 1 86 87
M  V30 87 1 87 88
M  V30 88 1 10 11
M  V30 89 1 46 47
M  V30 90 1 49 59
M  V30 91 1 57 55 CFG=3
M  V30 92 1 69 70
M  V30 93 1 75 76
M  V30 94 1 81 82
M  V30 END BOND
M  V30 BEGIN COLLECTION
M  V30 MDLV30/STERAC1 ATOMS=(15 4 5 8 10 11 20 21 23 25 28 33 37 47 57 62)
M  V30 END COLLECTION
M  V30 END CTAB
M  END
>  <Molecule Name>


>  <status>
-

>  <cas>
1396640-59-7

>  <name>
REZAFUNGIN

>  <ID>
2080

>  <Smiles>
CCCCCOc(cc1)ccc1-c(cc1)ccc1-c(cc1)ccc1C(N[C@H](C[C@@H]([C@@H](NC([C@@H]([C@@H]([C@H](C)C1)O)N1C([C@@H]([C@H](C)O)NC([C@@H]([C@H]([C@@H](c(cc1)ccc1O)O)O)NC([C@@H](C[C@@H](C1)O)N1C([C@@H]([C@H](C)O)N1)=O)=O)=O)=O)=O)OCC[N+](C)(C)C)O)C1=O)=O

$$$$

Actelion Java MolfileCreator 2.0

  0  0  0  0  0  0              0 V3000
M  V30 BEGIN CTAB
M  V30 COUNTS 34 37 0 0 0
M  V30 BEGIN ATOM
M  V30 1 O 5.1961 3.75 0.0 0
M  V30 2 C 6.4951 4.5 0.0 0
M  V30 3 C 5.1961 2.25 0.0 0
M  V30 4 C 7.7942 3.75 0.0 0
M  V30 5 C 6.4951 6.0 0.0 0
M  V30 6 C 9.0932 4.5 0.0 0
M  V30 7 C 7.7942 6.75 0.0 0
M  V30 8 N 10.3923 3.7499 0.0 0
M  V30 9 C 9.0932 6.0 0.0 0
M  V30 10 C 11.6913 4.4999 0.0 0
M  V30 11 C 10.3923 2.2499 0.0 0
M  V30 12 C 10.3923 6.7499 0.0 0 CFG=2
M  V30 13 C 12.9903 3.7499 0.0 0
M  V30 14 C 9.0932 1.5 0.0 0
M  V30 15 C 10.3923 8.25 0.0 0
M  V30 16 C 11.6913 5.9999 0.0 0
M  V30 17 C 12.9903 2.2499 0.0 0
M  V30 18 C 14.2894 4.5 0.0 0
M  V30 19 C 11.6913 9.0 0.0 0
M  V30 20 C 12.9903 6.7499 0.0 0
M  V30 21 C 14.2894 1.4999 0.0 0
M  V30 22 C 15.5884 3.7499 0.0 0
M  V30 23 C 12.9903 8.25 0.0 0
M  V30 24 C 11.6913 10.4999 0.0 0
M  V30 25 C 15.5884 2.25 0.0 0
M  V30 26 C 14.2894 9.0 0.0 0
M  V30 27 C 12.9903 11.25 0.0 0
M  V30 28 C 16.8874 1.4999 0.0 0
M  V30 29 C 14.2894 10.4999 0.0 0
M  V30 30 C 16.8874 0.0 0.0 0
M  V30 31 O 15.5884 11.25 0.0 0
M  V30 32 N 18.1865 -0.75 0.0 0
M  V30 33 C 18.1865 -2.25 0.0 0
M  V30 34 C 19.4855 -3.0 0.0 0
M  V30 END ATOM
M  V30 BEGIN BOND
M  V30 1 1 1 2
M  V30 2 1 1 3
M  V30 3 2 2 4
M  V30 4 1 2 5
M  V30 5 1 4 6
M  V30 6 2 5 7
M  V30 7 1 6 8
M  V30 8 2 6 9
M  V30 9 1 8 10
M  V30 10 1 8 11
M  V30 11 1 12 9 CFG=3
M  V30 12 1 10 13
M  V30 13 1 11 14
M  V30 14 1 12 15
M  V30 15 1 12 16
M  V30 16 2 13 17
M  V30 17 1 13 18
M  V30 18 1 15 19
M  V30 19 1 16 20
M  V30 20 1 17 21
M  V30 21 2 18 22
M  V30 22 2 19 23
M  V30 23 1 19 24
M  V30 24 2 21 25
M  V30 25 1 23 26
M  V30 26 2 24 27
M  V30 27 1 25 28
M  V30 28 2 26 29
M  V30 29 1 28 30
M  V30 30 1 29 31
M  V30 31 1 30 32
M  V30 32 1 32 33
M  V30 33 1 33 34
M  V30 34 1 7 9
M  V30 35 1 20 23
M  V30 36 1 22 25
M  V30 37 1 27 29
M  V30 END BOND
M  V30 BEGIN COLLECTION
M  V30 MDLV30/STERAC1 ATOMS=(1 12)
M  V30 END COLLECTION
M  V30 END CTAB
M  END
>  <Molecule Name>


>  <status>
-

>  <cas>
722533-56-4

>  <name>
ELACESTRANT

>  <ID>
2081

>  <Smiles>
CCNCCc1ccc(CN(CC)c2c(C(CC3)Cc(cc4)c3cc4O)ccc(OC)c2)cc1

$$$$

Actelion Java MolfileCreator 2.0

  0  0  0  0  0  0              0 V3000
M  V30 BEGIN CTAB
M  V30 COUNTS 32 35 0 0 0
M  V30 BEGIN ATOM
M  V30 1 F 4.032 8.7084 0.0 0
M  V30 2 C 4.9456 8.3017 0.0 0
M  V30 3 F 5.3523 9.2152 0.0 0
M  V30 4 F 5.8591 7.895 0.0 0
M  V30 5 C 4.5388 7.3881 0.0 0
M  V30 6 C 3.5443 7.2836 0.0 0
M  V30 7 C 5.1266 6.5791 0.0 0
M  V30 8 O 2.9565 8.0926 0.0 0
M  V30 9 N 3.1376 6.3701 0.0 0
M  V30 10 C 4.7199 5.6656 0.0 0
M  V30 11 C 1.962 7.9881 0.0 0
M  V30 12 C 3.7253 5.5611 0.0 0
M  V30 13 N 5.3076 4.8566 0.0 0
M  V30 14 C 4.9009 3.943 0.0 0
M  V30 15 C 6.3022 4.9611 0.0 0
M  V30 16 C 5.4887 3.134 0.0 0
M  V30 17 C 6.89 4.1521 0.0 0
M  V30 18 C 5.082 2.2205 0.0 0
M  V30 19 C 6.4832 3.2385 0.0 0
M  V30 20 N 5.6697 1.4114 0.0 0
M  V30 21 N 4.0874 2.1159 0.0 0
M  V30 22 N 7.071 2.4295 0.0 0
M  V30 23 C 6.6643 1.516 0.0 0
M  V30 24 C 3.6807 1.2024 0.0 0 CFG=2
M  V30 25 C 2.7026 0.9945 0.0 0
M  V30 26 C 4.1807 0.3364 0.0 0
M  V30 27 N 2.598 0.0 0.0 0
M  V30 28 C 3.5116 -0.4067 0.0 0
M  V30 29 C 1.732 -0.5 0.0 0
M  V30 30 O 1.732 -1.5 0.0 0
M  V30 31 C 0.866 0.0 0.0 0
M  V30 32 C 0.0 -0.5 0.0 0
M  V30 END ATOM
M  V30 BEGIN BOND
M  V30 1 1 1 2
M  V30 2 1 2 3
M  V30 3 1 2 4
M  V30 4 1 2 5
M  V30 5 2 5 6
M  V30 6 1 5 7
M  V30 7 1 6 8
M  V30 8 1 6 9
M  V30 9 2 7 10
M  V30 10 1 8 11
M  V30 11 2 9 12
M  V30 12 1 10 13
M  V30 13 1 13 14
M  V30 14 1 13 15
M  V30 15 1 14 16
M  V30 16 1 15 17
M  V30 17 2 16 18
M  V30 18 1 16 19
M  V30 19 1 18 20
M  V30 20 1 18 21
M  V30 21 2 19 22
M  V30 22 2 20 23
M  V30 23 1 24 21 CFG=1
M  V30 24 1 24 25
M  V30 25 1 24 26
M  V30 26 1 25 27
M  V30 27 1 26 28
M  V30 28 1 27 29
M  V30 29 2 29 30
M  V30 30 1 29 31
M  V30 31 1 31 32
M  V30 32 1 10 12
M  V30 33 1 17 19
M  V30 34 1 22 23
M  V30 35 1 27 28
M  V30 END BOND
M  V30 BEGIN COLLECTION
M  V30 MDLV30/STERAC1 ATOMS=(1 24)
M  V30 END COLLECTION
M  V30 END CTAB
M  END
>  <Molecule Name>


>  <status>
-

>  <cas>
1354690-24-6

>  <name>
LENIOLISIB

>  <ID>
2082

>  <Smiles>
CCC(N(CC1)CC1Nc1c(CN(CC2)c(cn3)cc(C(F)(F)F)c3OC)c2ncn1)=O

$$$$

Actelion Java MolfileCreator 2.0

  0  0  0  0  0  0              0 V3000
M  V30 BEGIN CTAB
M  V30 COUNTS 53 56 0 0 0
M  V30 BEGIN ATOM
M  V30 1 Cl 10.6912 2.6537 0.0 0
M  V30 2 C 11.1179 1.7493 0.0 0
M  V30 3 C 12.1145 1.6667 0.0 0
M  V30 4 C 10.5481 0.9275 0.0 0
M  V30 5 O 12.6843 2.4885 0.0 0
M  V30 6 C 12.5413 0.7624 0.0 0
M  V30 7 N 9.3916 1.0142 0.0 0
M  V30 8 C 10.9749 0.0232 0.0 0
M  V30 9 C 12.2575 3.3929 0.0 0
M  V30 10 C 11.9715 -0.0593 0.0 0
M  V30 11 C 8.4158 0.7955 0.0 0
M  V30 12 C 9.3188 2.0116 0.0 0
M  V30 13 C 12.4582 -1.112 0.0 0
M  V30 14 O 8.0395 1.722 0.0 0
M  V30 15 C 7.5639 0.2719 0.0 0
M  V30 16 C 12.5956 -2.1025 0.0 0
M  V30 17 C 6.9282 -0.5 0.0 0 CFG=2
M  V30 18 C 12.0956 -2.9686 0.0 0
M  V30 19 C 13.577 -2.2942 0.0 0
M  V30 20 O 6.0621 0.0 0.0 0
M  V30 21 C 6.5775 -1.4365 0.0 0 CFG=2
M  V30 22 C 11.9038 -3.95 0.0 0
M  V30 23 C 6.0621 1.0 0.0 0
M  V30 24 O 5.698 -1.9124 0.0 0
M  V30 25 C 6.55 -2.4361 0.0 0 CFG=1
M  V30 26 C 5.8234 -0.7797 0.0 0
M  V30 27 C 10.9773 -4.3263 0.0 0
M  V30 28 O 6.9282 1.5 0.0 0
M  V30 29 C 5.1961 1.5 0.0 0 CFG=1
M  V30 30 C 6.8485 -3.3905 0.0 0 CFG=1
M  V30 31 C 10.2232 -4.9831 0.0 0 CFG=1
M  V30 32 N 5.1961 2.5 0.0 0
M  V30 33 C 4.3301 1.0 0.0 0
M  V30 34 C 7.5018 -4.3487 0.0 0 CFG=1
M  V30 35 C 5.9484 -3.8262 0.0 0
M  V30 36 O 10.6159 -5.9028 0.0 0
M  V30 37 C 9.0682 -5.0879 0.0 0 CFG=2
M  V30 38 C 4.3301 3.0 0.0 0
M  V30 39 C 6.0621 3.0 0.0 0
M  V30 40 O 7.075 -5.2531 0.0 0
M  V30 41 C 8.4984 -4.2661 0.0 0
M  V30 42 C 11.6087 -6.0226 0.0 0
M  V30 43 O 9.6412 -5.9075 0.0 0
M  V30 44 N 8.6414 -5.9923 0.0 0
M  V30 45 O 3.4641 2.5 0.0 0
M  V30 46 C 4.3301 4.0 0.0 0
M  V30 47 C 7.6449 -6.0749 0.0 0
M  V30 48 C 3.4641 4.5 0.0 0
M  V30 49 O 7.2181 -6.9792 0.0 0
M  V30 50 C 3.4641 5.5 0.0 0
M  V30 51 S 4.4641 5.5 0.0 0
M  V30 52 C 3.4641 6.5 0.0 0
M  V30 53 C 2.4641 5.5 0.0 0
M  V30 END ATOM
M  V30 BEGIN BOND
M  V30 1 1 1 2
M  V30 2 2 2 3
M  V30 3 1 2 4
M  V30 4 1 3 5
M  V30 5 1 3 6
M  V30 6 1 4 7
M  V30 7 2 4 8
M  V30 8 1 5 9
M  V30 9 2 6 10
M  V30 10 1 7 11
M  V30 11 1 7 12
M  V30 12 1 10 13
M  V30 13 2 11 14
M  V30 14 1 11 15
M  V30 15 1 13 16
M  V30 16 1 17 15
M  V30 17 2 16 18
M  V30 18 1 16 19
M  V30 19 1 17 20 CFG=1
M  V30 20 1 21 17
M  V30 21 1 18 22
M  V30 22 1 20 23
M  V30 23 1 21 24
M  V30 24 1 25 21
M  V30 25 1 21 26 CFG=3
M  V30 26 2 22 27
M  V30 27 2 23 28
M  V30 28 1 29 23
M  V30 29 1 30 25
M  V30 30 1 31 27
M  V30 31 1 29 32 CFG=3
M  V30 32 1 29 33
M  V30 33 1 34 30
M  V30 34 1 30 35 CFG=1
M  V30 35 1 31 36 CFG=1
M  V30 36 1 37 31
M  V30 37 1 32 38
M  V30 38 1 32 39
M  V30 39 1 34 40 CFG=3
M  V30 40 1 34 41
M  V30 41 1 36 42
M  V30 42 1 37 43 CFG=1
M  V30 43 1 37 44
M  V30 44 2 38 45
M  V30 45 1 38 46
M  V30 46 1 40 47
M  V30 47 1 46 48
M  V30 48 2 47 49
M  V30 49 1 48 50
M  V30 50 1 50 51
M  V30 51 1 50 52
M  V30 52 1 50 53
M  V30 53 1 8 10
M  V30 54 1 25 24 CFG=3
M  V30 55 1 37 41
M  V30 56 1 44 47
M  V30 END BOND
M  V30 BEGIN COLLECTION
M  V30 MDLV30/STERAC1 ATOMS=(8 17 21 25 29 30 31 34 37)
M  V30 END COLLECTION
M  V30 END CTAB
M  END
>  <Molecule Name>


>  <status>
-

>  <cas>
796073-69-3

>  <name>
SORAVTANSINE

>  <ID>
2083

>  <Smiles>
C[C@@H](C(O[C@@H](CC(N(C)c1cc(C/C(/C)=C/C=C/[C@H]([C@@](C2)(N3)O)OC)cc(OC)c1Cl)=O)[C@]1(C)O[C@H]1[C@H](C)[C@H]2OC3=O)=O)N(C)C(CCC(C)(C)S)=O

$$$$
